201
-1248.00813
C    -0.372000000    -4.333000000     2.379000000
H    -0.273000000    -4.450000000     1.302000000
C    -1.476000000    -3.572000000     2.792000000
C    -1.538000000    -3.094000000     4.112000000
H    -2.296000000    -2.482000000     4.595000000
C    -2.471000000    -3.056000000     1.693000000
O    -2.912000000    -4.117000000     0.809000000
H    -1.924000000    -2.231000000     1.213000000
O    -3.631000000    -2.473000000     2.378000000
C    -3.942000000    -1.215000000     1.879000000
C    -3.497000000    -0.123000000     2.592000000
H    -3.051000000    -0.355000000     3.556000000
C    -3.855000000     1.154000000     2.198000000
O    -3.397000000     2.234000000     2.896000000
C    -4.547000000     1.293000000     0.956000000
C    -4.953000000     2.722000000     0.475000000
H    -5.848000000     2.690000000    -0.150000000
C    -3.768000000     3.211000000    -0.336000000
C    -3.755000000     3.108000000    -1.750000000
H    -4.645000000     2.704000000    -2.225000000
H    -5.222000000     3.426000000     1.265000000
C    -4.898000000     0.209000000     0.200000000
H    -5.358000000     0.316000000    -0.779000000
C    -4.635000000    -1.086000000     0.632000000
C    -5.012000000    -2.290000000    -0.200000000
H    -5.830000000    -2.072000000    -0.891000000
H    -5.519000000    -2.986000000     0.472000000
C    -3.876000000    -2.820000000    -1.058000000
C    -3.813000000    -2.504000000    -2.427000000
H    -4.552000000    -1.786000000    -2.774000000
C    -2.968000000    -3.769000000    -0.568000000
C    -1.885000000    -4.087000000    -1.347000000
H    -1.185000000    -4.814000000    -0.943000000
C    -1.708000000    -3.503000000    -2.646000000
O    -0.430000000    -3.737000000    -3.190000000
C     0.562000000    -2.748000000    -3.439000000
C     1.940000000    -3.349000000    -3.362000000
C     2.984000000    -2.825000000    -4.130000000
H     2.883000000    -1.974000000    -4.798000000
C     2.229000000    -4.265000000    -2.411000000
H     1.419000000    -4.619000000    -1.778000000
O     0.244000000    -2.041000000    -4.694000000
H     0.528000000    -2.004000000    -2.629000000
C    -2.671000000    -2.728000000    -3.199000000
C    -2.633000000    -2.084000000    -4.556000000
H    -3.614000000    -1.892000000    -4.995000000
H    -2.182000000    -2.739000000    -5.305000000
C    -1.767000000    -0.779000000    -4.571000000
C    -2.404000000     0.412000000    -4.387000000
H    -3.477000000     0.238000000    -4.412000000
C    -0.394000000    -0.856000000    -4.624000000
C     0.252000000     0.369000000    -4.608000000
H     1.330000000     0.235000000    -4.642000000
C    -0.375000000     1.588000000    -4.276000000
O     0.427000000     2.589000000    -3.936000000
C     0.598000000     2.999000000    -2.577000000
C     2.092000000     3.243000000    -2.166000000
C     3.109000000     2.487000000    -2.663000000
H     2.943000000     1.661000000    -3.350000000
C     2.388000000     4.247000000    -1.219000000
H     1.564000000     4.862000000    -0.865000000
O    -0.245000000     4.188000000    -2.315000000
H     0.141000000     2.219000000    -1.949000000
C    -1.763000000     1.658000000    -4.166000000
C    -2.504000000     3.019000000    -3.911000000
H    -3.514000000     2.922000000    -4.315000000
H    -1.900000000     3.742000000    -4.463000000
C    -2.580000000     3.375000000    -2.448000000
C    -1.467000000     3.842000000    -1.708000000
C    -1.529000000     4.060000000    -0.322000000
H    -0.656000000     4.544000000     0.109000000
C    -2.701000000     3.830000000     0.379000000
O    -2.721000000     4.052000000     1.739000000
C    -2.209000000     2.860000000     2.468000000
H    -1.703000000     2.259000000     1.698000000
C    -1.125000000     3.127000000     3.518000000
C    -0.774000000     2.156000000     4.499000000
H    -1.182000000     1.152000000     4.424000000
C    -0.357000000     4.332000000     3.532000000
H    -0.643000000     5.012000000     2.733000000
C     0.612000000     4.595000000     4.469000000
O     1.346000000     5.791000000     4.233000000
C     0.862000000     3.657000000     5.477000000
H     1.637000000     3.762000000     6.233000000
C     0.170000000     2.447000000     5.467000000
O     0.543000000     1.465000000     6.375000000
C    -0.350000000     0.482000000     6.869000000
C    -0.006000000    -0.808000000     6.464000000
H     0.926000000    -1.009000000     5.942000000
C    -1.552000000     0.778000000     7.510000000
H    -1.843000000     1.783000000     7.805000000
C    -2.453000000    -0.242000000     7.788000000
H    -3.345000000     0.092000000     8.313000000
C    -2.127000000    -1.559000000     7.467000000
H    -2.799000000    -2.411000000     7.532000000
C    -0.979000000    -1.792000000     6.694000000
O    -0.650000000    -3.070000000     6.287000000
C    -0.587000000    -3.576000000     4.993000000
C     0.435000000    -4.382000000     4.599000000
H     1.226000000    -4.596000000     5.312000000
C     0.554000000    -4.829000000     3.267000000
O     1.715000000    -5.592000000     2.868000000
C     1.841000000    -6.125000000     1.620000000
C     2.859000000    -5.760000000     0.813000000
H     3.550000000    -4.971000000     1.099000000
C     0.963000000    -7.110000000     1.190000000
H     0.133000000    -7.335000000     1.854000000
C     1.101000000    -7.703000000    -0.057000000
H     0.443000000    -8.500000000    -0.390000000
C     2.034000000    -7.230000000    -0.969000000
H     2.090000000    -7.579000000    -1.997000000
C     2.904000000    -6.287000000    -0.452000000
O     3.882000000    -5.638000000    -1.312000000
C     3.570000000    -4.700000000    -2.249000000
C     4.590000000    -4.232000000    -3.094000000
H     5.640000000    -4.456000000    -2.920000000
C     4.274000000    -3.238000000    -3.975000000
O     5.316000000    -2.578000000    -4.730000000
C     5.484000000    -1.202000000    -4.730000000
C     5.333000000    -0.452000000    -3.532000000
H     5.267000000    -1.001000000    -2.597000000
C     5.640000000    -0.511000000    -5.887000000
H     5.644000000    -1.035000000    -6.839000000
C     5.630000000     0.843000000    -5.919000000
H     5.836000000     1.286000000    -6.890000000
C     5.467000000     1.610000000    -4.730000000
H     5.551000000     2.693000000    -4.744000000
C     5.449000000     0.952000000    -3.531000000
O     5.401000000     1.687000000    -2.361000000
C     4.371000000     2.604000000    -2.095000000
C     4.662000000     3.543000000    -1.108000000
H     5.639000000     3.628000000    -0.641000000
C     3.654000000     4.387000000    -0.726000000
O     3.877000000     5.338000000     0.262000000
C     2.979000000     6.023000000     0.985000000
C     2.421000000     7.216000000     0.525000000
H     2.661000000     7.652000000    -0.442000000
C     1.542000000     7.989000000     1.306000000
H     1.123000000     8.890000000     0.865000000
C     1.098000000     7.482000000     2.562000000
H     0.388000000     8.022000000     3.184000000
C     1.582000000     6.246000000     2.968000000
C     2.508000000     5.527000000     2.192000000
H     2.781000000     4.539000000     2.552000000
O     8.027000000    -2.069000000    -3.168000000
H     8.435000000    -2.872000000    -3.491000000
H     7.374000000    -2.370000000    -2.536000000
O     5.271000000     1.894000000     1.994000000
H     5.397000000     1.445000000     2.830000000
H     5.928000000     1.508000000     1.414000000
O     7.711000000    -3.189000000     4.732000000
H     8.464000000    -2.651000000     4.487000000
H     7.197000000    -3.261000000     3.928000000
O     5.464000000    -2.702000000     6.225000000
H     5.690000000    -2.115000000     6.947000000
H     6.305000000    -2.929000000     5.829000000
O     2.163000000     1.918000000     2.249000000
H     1.811000000     1.083000000     1.940000000
H     3.067000000     1.928000000     1.935000000
O     4.193000000    -5.606000000     4.362000000
H     3.445000000    -5.024000000     4.223000000
H     4.869000000    -5.273000000     3.773000000
O     6.254000000    -3.718000000     2.522000000
H     6.298000000    -4.124000000     1.656000000
H     5.565000000    -3.059000000     2.443000000
O     2.173000000    -2.631000000     7.400000000
H     1.236000000    -2.816000000     7.331000000
H     2.518000000    -2.812000000     6.526000000
O     3.718000000     1.486000000     6.136000000
H     4.292000000     1.300000000     5.393000000
H     2.856000000     1.180000000     5.855000000
O     6.635000000     4.746000000     2.345000000
H     5.967000000     4.079000000     2.184000000
H     7.302000000     4.583000000     1.677000000
O     6.506000000    -5.296000000     0.154000000
H     7.337000000    -5.770000000     0.167000000
H     5.922000000    -5.850000000    -0.364000000
O     7.020000000    -0.583000000     1.509000000
H     7.344000000    -0.490000000     0.613000000
H     6.248000000    -1.143000000     1.427000000
O     8.612000000     1.638000000    -1.382000000
H     9.398000000     1.317000000    -1.823000000
H     7.887000000     1.249000000    -1.871000000
O     8.199000000     0.462000000     3.700000000
H     7.887000000     1.367000000     3.675000000
H     7.667000000     0.008000000     3.046000000
O     5.556000000    -7.428000000     2.107000000
H     6.426000000    -7.695000000     2.405000000
H     5.662000000    -6.511000000     1.853000000
O     9.871000000    -3.126000000     0.184000000
H    10.709000000    -2.669000000     0.263000000
H     9.216000000    -2.464000000     0.406000000
O     6.558000000    -2.848000000    -0.938000000
H     6.786000000    -3.624000000    -0.426000000
H     5.691000000    -2.597000000    -0.620000000
O     3.215000000    -2.899000000     5.074000000
H     4.064000000    -2.880000000     5.516000000
H     3.394000000    -2.557000000     4.198000000
O     5.246000000     0.231000000     4.044000000
H     4.724000000    -0.449000000     3.618000000
H     6.023000000    -0.228000000     4.363000000
