201
-1214.27058
C    -2.667000000    -4.291000000     0.507000000
H    -2.703000000    -4.488000000    -0.561000000
C    -3.175000000    -3.070000000     1.052000000
C    -3.116000000    -2.855000000     2.405000000
H    -3.465000000    -1.925000000     2.845000000
C    -3.673000000    -1.950000000     0.121000000
O    -4.270000000    -2.423000000    -1.124000000
H    -2.889000000    -1.256000000    -0.216000000
O    -4.738000000    -1.138000000     0.769000000
C    -4.675000000     0.226000000     0.678000000
C    -4.195000000     0.892000000     1.789000000
H    -3.783000000     0.296000000     2.599000000
C    -3.772000000     2.223000000     1.745000000
O    -2.983000000     2.791000000     2.785000000
C    -4.040000000     2.966000000     0.561000000
C    -3.545000000     4.417000000     0.457000000
H    -4.065000000     5.110000000    -0.209000000
C    -2.103000000     4.454000000     0.011000000
C    -1.722000000     4.612000000    -1.357000000
H    -2.437000000     4.801000000    -2.154000000
H    -3.595000000     4.899000000     1.436000000
C    -4.673000000     2.306000000    -0.537000000
H    -4.826000000     2.947000000    -1.402000000
C    -4.915000000     0.910000000    -0.542000000
C    -5.394000000     0.216000000    -1.859000000
H    -5.682000000     0.919000000    -2.644000000
H    -6.120000000    -0.597000000    -1.787000000
C    -4.227000000    -0.475000000    -2.572000000
C    -3.535000000     0.184000000    -3.624000000
H    -3.764000000     1.241000000    -3.731000000
C    -3.802000000    -1.794000000    -2.276000000
C    -2.779000000    -2.401000000    -3.003000000
H    -2.394000000    -3.366000000    -2.683000000
C    -2.136000000    -1.684000000    -3.999000000
O    -0.991000000    -2.327000000    -4.394000000
C     0.205000000    -1.698000000    -3.815000000
C     1.168000000    -2.769000000    -3.330000000
C     2.389000000    -2.380000000    -2.740000000
H     2.672000000    -1.336000000    -2.846000000
C     0.801000000    -4.134000000    -3.317000000
H    -0.133000000    -4.516000000    -3.720000000
O     0.784000000    -0.765000000    -4.809000000
H    -0.044000000    -1.055000000    -2.958000000
C    -2.458000000    -0.359000000    -4.361000000
C    -1.729000000     0.431000000    -5.427000000
H    -2.513000000     1.025000000    -5.901000000
H    -1.407000000    -0.233000000    -6.232000000
C    -0.616000000     1.147000000    -4.739000000
C    -0.826000000     2.549000000    -4.395000000
H    -1.716000000     3.132000000    -4.619000000
C     0.626000000     0.577000000    -4.555000000
C     1.679000000     1.269000000    -4.054000000
H     2.672000000     0.847000000    -3.921000000
C     1.441000000     2.557000000    -3.640000000
O     2.511000000     2.986000000    -2.911000000
C     2.389000000     3.151000000    -1.505000000
C     3.736000000     2.822000000    -0.899000000
C     4.614000000     1.913000000    -1.505000000
H     4.357000000     1.562000000    -2.501000000
C     4.064000000     3.393000000     0.338000000
H     3.333000000     3.971000000     0.897000000
O     1.906000000     4.439000000    -1.190000000
H     1.736000000     2.366000000    -1.096000000
C     0.262000000     3.269000000    -3.827000000
C     0.025000000     4.645000000    -3.205000000
H    -0.781000000     5.089000000    -3.794000000
H     0.901000000     5.291000000    -3.302000000
C    -0.341000000     4.573000000    -1.745000000
C     0.605000000     4.617000000    -0.786000000
C     0.279000000     4.530000000     0.534000000
H     1.051000000     4.248000000     1.246000000
C    -1.027000000     4.417000000     0.907000000
O    -1.275000000     4.238000000     2.244000000
C    -1.615000000     2.959000000     2.751000000
H    -1.246000000     2.228000000     2.016000000
C    -0.863000000     2.574000000     4.046000000
C    -1.450000000     1.763000000     5.014000000
H    -2.502000000     1.508000000     4.921000000
C     0.532000000     2.763000000     4.214000000
H     1.015000000     3.261000000     3.377000000
C     1.242000000     2.163000000     5.235000000
O     2.615000000     2.236000000     5.260000000
C     0.595000000     1.385000000     6.212000000
H     1.215000000     0.963000000     6.998000000
C    -0.773000000     1.166000000     6.087000000
O    -1.389000000     0.322000000     7.035000000
C    -2.203000000    -0.682000000     6.700000000
C    -1.775000000    -1.776000000     5.890000000
H    -0.732000000    -1.843000000     5.591000000
C    -3.577000000    -0.647000000     7.002000000
H    -3.832000000     0.302000000     7.466000000
C    -4.469000000    -1.545000000     6.494000000
H    -5.545000000    -1.407000000     6.569000000
C    -4.010000000    -2.604000000     5.741000000
H    -4.695000000    -3.347000000     5.341000000
C    -2.717000000    -2.638000000     5.345000000
O    -2.296000000    -3.648000000     4.561000000
C    -2.534000000    -3.785000000     3.224000000
C    -2.126000000    -5.022000000     2.730000000
H    -1.681000000    -5.791000000     3.357000000
C    -2.279000000    -5.306000000     1.373000000
O    -1.822000000    -6.512000000     0.962000000
C    -1.472000000    -6.796000000    -0.318000000
C    -0.423000000    -6.259000000    -1.004000000
H     0.324000000    -5.646000000    -0.506000000
C    -2.235000000    -7.733000000    -0.998000000
H    -3.081000000    -8.075000000    -0.408000000
C    -1.959000000    -8.134000000    -2.322000000
H    -2.681000000    -8.821000000    -2.755000000
C    -0.784000000    -7.601000000    -2.927000000
H    -0.442000000    -7.939000000    -3.901000000
C     0.026000000    -6.752000000    -2.204000000
O     1.240000000    -6.384000000    -2.789000000
C     1.638000000    -5.106000000    -2.740000000
C     2.806000000    -4.688000000    -2.181000000
H     3.428000000    -5.408000000    -1.655000000
C     3.212000000    -3.365000000    -2.222000000
O     4.462000000    -3.111000000    -1.729000000
C     5.354000000    -2.257000000    -2.336000000
C     5.831000000    -1.136000000    -1.643000000
H     5.405000000    -0.872000000    -0.679000000
C     5.805000000    -2.443000000    -3.635000000
H     5.446000000    -3.328000000    -4.154000000
C     6.565000000    -1.436000000    -4.320000000
H     6.987000000    -1.641000000    -5.300000000
C     6.965000000    -0.267000000    -3.649000000
H     7.596000000     0.507000000    -4.078000000
C     6.604000000    -0.143000000    -2.323000000
O     6.847000000     1.067000000    -1.665000000
C     5.861000000     1.760000000    -0.952000000
C     6.228000000     2.428000000     0.249000000
H     7.252000000     2.221000000     0.549000000
C     5.289000000     3.235000000     0.880000000
O     5.673000000     3.826000000     1.960000000
C     4.909000000     4.041000000     3.064000000
C     4.848000000     5.300000000     3.638000000
H     5.398000000     6.172000000     3.292000000
C     3.985000000     5.552000000     4.719000000
H     4.016000000     6.562000000     5.122000000
C     3.117000000     4.522000000     5.145000000
H     2.477000000     4.641000000     6.015000000
C     3.355000000     3.263000000     4.670000000
C     4.191000000     3.002000000     3.671000000
H     4.327000000     2.003000000     3.264000000
O     2.721000000    -3.204000000     9.257000000
H     3.273000000    -3.768000000     9.799000000
H     3.176000000    -3.161000000     8.416000000
O     2.793000000    -6.999000000     4.312000000
H     3.025000000    -7.134000000     5.231000000
H     3.634000000    -6.961000000     3.855000000
O     8.671000000     0.672000000     2.373000000
H     9.250000000     0.263000000     1.729000000
H     8.120000000    -0.045000000     2.689000000
O     5.485000000     1.641000000     6.656000000
H     5.393000000     1.380000000     5.740000000
H     6.430000000     1.715000000     6.790000000
O     2.800000000    -7.628000000     0.149000000
H     3.134000000    -6.770000000     0.411000000
H     3.518000000    -8.232000000     0.335000000
O     6.145000000    -6.870000000     0.565000000
H     7.022000000    -7.246000000     0.481000000
H     6.295000000    -5.927000000     0.635000000
O     4.607000000    -4.406000000     5.163000000
H     5.398000000    -4.639000000     4.676000000
H     4.125000000    -3.826000000     4.573000000
O     5.597000000    -7.769000000     3.292000000
H     6.035000000    -7.239000000     3.958000000
H     5.618000000    -7.227000000     2.503000000
O     3.546000000    -1.850000000     6.296000000
H     4.028000000    -2.620000000     6.597000000
H     3.119000000    -2.136000000     5.488000000
O     7.907000000    -1.564000000     0.258000000
H     7.336000000    -1.105000000     0.874000000
H     8.717000000    -1.713000000     0.747000000
O     4.508000000    -6.594000000     6.784000000
H     4.571000000    -5.719000000     6.400000000
H     5.347000000    -6.721000000     7.228000000
O     6.250000000    -1.062000000     2.306000000
H     6.543000000    -1.195000000     3.208000000
H     5.535000000    -1.689000000     2.193000000
O     6.989000000    -6.195000000     5.025000000
H     6.888000000    -6.479000000     5.934000000
H     7.714000000    -5.571000000     5.049000000
O    -0.491000000    -5.972000000     6.770000000
H    -1.047000000    -5.381000000     7.277000000
H    -0.242000000    -5.464000000     5.998000000
O     1.220000000    -4.686000000     4.891000000
H     1.898000000    -5.350000000     4.768000000
H     1.620000000    -3.874000000     4.580000000
O     3.710000000    -5.169000000     1.436000000
H     3.304000000    -4.478000000     1.961000000
H     4.311000000    -4.705000000     0.853000000
O     6.419000000    -1.180000000     4.995000000
H     5.588000000    -1.355000000     5.438000000
H     7.083000000    -1.312000000     5.672000000
O     6.573000000    -3.904000000     0.824000000
H     7.110000000    -3.194000000     0.474000000
H     5.920000000    -3.464000000     1.369000000
O     3.491000000     0.263000000     7.917000000
H     4.273000000     0.566000000     7.457000000
H     3.221000000    -0.521000000     7.439000000
