201
-1219.84867
C    -1.849000000    -3.599000000     2.735000000
H    -1.905000000    -4.238000000     1.857000000
C    -2.645000000    -2.429000000     2.838000000
C    -2.447000000    -1.593000000     3.884000000
H    -3.109000000    -0.736000000     3.975000000
C    -3.387000000    -1.830000000     1.687000000
O    -3.850000000    -2.904000000     0.829000000
H    -2.624000000    -1.273000000     1.123000000
O    -4.452000000    -0.948000000     2.018000000
C    -4.396000000     0.228000000     1.285000000
C    -3.869000000     1.389000000     1.890000000
H    -3.764000000     1.554000000     2.959000000
C    -3.555000000     2.560000000     1.086000000
O    -2.974000000     3.694000000     1.618000000
C    -3.940000000     2.513000000    -0.268000000
C    -3.740000000     3.745000000    -1.193000000
H    -4.416000000     3.787000000    -2.050000000
C    -2.433000000     3.873000000    -1.771000000
C    -2.187000000     3.477000000    -3.055000000
H    -2.985000000     2.929000000    -3.548000000
H    -3.963000000     4.616000000    -0.574000000
C    -4.556000000     1.411000000    -0.801000000
H    -4.898000000     1.460000000    -1.832000000
C    -4.729000000     0.228000000    -0.051000000
C    -5.299000000    -1.056000000    -0.770000000
H    -6.053000000    -0.772000000    -1.508000000
H    -5.833000000    -1.684000000    -0.054000000
C    -4.209000000    -1.846000000    -1.407000000
C    -3.875000000    -1.637000000    -2.745000000
H    -4.421000000    -0.928000000    -3.363000000
C    -3.616000000    -2.810000000    -0.572000000
C    -2.627000000    -3.551000000    -1.130000000
H    -1.991000000    -4.144000000    -0.477000000
C    -2.334000000    -3.388000000    -2.470000000
O    -1.162000000    -3.987000000    -2.824000000
C     0.127000000    -3.385000000    -2.575000000
C     1.127000000    -4.437000000    -2.291000000
C     2.536000000    -4.136000000    -2.508000000
H     2.734000000    -3.207000000    -3.037000000
C     0.747000000    -5.602000000    -1.550000000
H    -0.302000000    -5.781000000    -1.332000000
O     0.428000000    -2.782000000    -3.831000000
H    -0.013000000    -2.674000000    -1.747000000
C    -2.930000000    -2.461000000    -3.308000000
C    -2.296000000    -2.105000000    -4.724000000
H    -3.094000000    -1.804000000    -5.407000000
H    -1.879000000    -3.036000000    -5.113000000
C    -1.154000000    -1.101000000    -4.580000000
C    -1.402000000     0.278000000    -4.750000000
H    -2.367000000     0.654000000    -5.078000000
C     0.124000000    -1.496000000    -4.092000000
C     1.149000000    -0.631000000    -3.975000000
H     2.132000000    -0.919000000    -3.613000000
C     0.934000000     0.700000000    -4.188000000
O     2.001000000     1.518000000    -4.064000000
C     2.006000000     2.244000000    -2.846000000
C     3.379000000     2.185000000    -2.143000000
C     4.206000000     1.081000000    -2.403000000
H     3.959000000     0.358000000    -3.177000000
C     3.732000000     2.987000000    -1.075000000
H     2.919000000     3.607000000    -0.706000000
O     1.493000000     3.621000000    -2.968000000
H     1.194000000     1.774000000    -2.271000000
C    -0.309000000     1.142000000    -4.643000000
C    -0.673000000     2.603000000    -4.796000000
H    -1.467000000     2.662000000    -5.544000000
H     0.155000000     3.128000000    -5.278000000
C    -0.893000000     3.320000000    -3.484000000
C     0.156000000     3.823000000    -2.683000000
C    -0.073000000     4.444000000    -1.459000000
H     0.727000000     4.775000000    -0.802000000
C    -1.391000000     4.466000000    -1.010000000
O    -1.475000000     4.938000000     0.294000000
C    -1.582000000     3.901000000     1.335000000
H    -1.178000000     2.978000000     0.891000000
C    -0.854000000     4.245000000     2.664000000
C    -1.244000000     3.706000000     3.853000000
H    -2.053000000     2.997000000     4.007000000
C     0.292000000     5.069000000     2.569000000
H     0.572000000     5.266000000     1.537000000
C     1.013000000     5.390000000     3.692000000
O     2.169000000     6.125000000     3.669000000
C     0.511000000     4.973000000     4.919000000
H     1.011000000     5.186000000     5.860000000
C    -0.570000000     4.087000000     4.975000000
O    -1.008000000     3.686000000     6.238000000
C    -1.813000000     2.562000000     6.294000000
C    -1.227000000     1.267000000     6.079000000
H    -0.170000000     1.044000000     5.960000000
C    -3.135000000     2.738000000     6.468000000
H    -3.499000000     3.763000000     6.458000000
C    -3.994000000     1.601000000     6.561000000
H    -5.045000000     1.744000000     6.803000000
C    -3.449000000     0.345000000     6.371000000
H    -4.150000000    -0.485000000     6.414000000
C    -2.053000000     0.150000000     6.089000000
O    -1.415000000    -1.119000000     5.993000000
C    -1.584000000    -1.946000000     4.942000000
C    -0.881000000    -3.131000000     4.818000000
H    -0.112000000    -3.243000000     5.578000000
C    -0.899000000    -3.924000000     3.690000000
O    -0.141000000    -5.032000000     3.669000000
C    -0.241000000    -5.983000000     2.687000000
C     0.717000000    -6.173000000     1.686000000
H     1.633000000    -5.589000000     1.727000000
C    -1.348000000    -6.825000000     2.695000000
H    -2.060000000    -6.692000000     3.506000000
C    -1.537000000    -7.915000000     1.786000000
H    -2.387000000    -8.580000000     1.922000000
C    -0.535000000    -8.135000000     0.855000000
H    -0.549000000    -8.873000000     0.057000000
C     0.553000000    -7.276000000     0.835000000
O     1.529000000    -7.420000000    -0.147000000
C     1.756000000    -6.386000000    -1.053000000
C     3.124000000    -6.043000000    -1.264000000
H     3.912000000    -6.704000000    -0.913000000
C     3.485000000    -4.946000000    -2.007000000
O     4.848000000    -4.516000000    -1.933000000
C     5.370000000    -3.529000000    -2.618000000
C     5.569000000    -2.297000000    -1.939000000
H     5.552000000    -2.232000000    -0.854000000
C     5.644000000    -3.539000000    -3.953000000
H     5.520000000    -4.376000000    -4.635000000
C     5.855000000    -2.329000000    -4.657000000
H     5.954000000    -2.272000000    -5.738000000
C     6.064000000    -1.150000000    -3.950000000
H     6.408000000    -0.297000000    -4.529000000
C     5.987000000    -1.121000000    -2.619000000
O     6.365000000    -0.005000000    -1.991000000
C     5.399000000     0.979000000    -1.677000000
C     5.833000000     1.994000000    -0.844000000
H     6.857000000     1.900000000    -0.491000000
C     4.926000000     2.933000000    -0.401000000
O     5.232000000     3.834000000     0.672000000
C     4.458000000     4.897000000     0.939000000
C     4.609000000     6.041000000     0.218000000
H     5.239000000     6.060000000    -0.667000000
C     4.069000000     7.264000000     0.748000000
H     4.247000000     8.204000000     0.233000000
C     3.268000000     7.234000000     1.877000000
H     2.842000000     8.188000000     2.179000000
C     2.994000000     6.061000000     2.524000000
C     3.638000000     4.878000000     2.128000000
H     3.552000000     3.931000000     2.654000000
O     3.494000000     0.549000000     2.086000000
H     3.357000000     0.798000000     3.000000000
H     2.754000000    -0.020000000     1.878000000
O     2.148000000    -1.507000000     8.640000000
H     1.243000000    -1.208000000     8.723000000
H     2.135000000    -2.109000000     7.896000000
O     8.935000000    -5.779000000     2.953000000
H     8.404000000    -5.628000000     2.171000000
H     8.297000000    -5.960000000     3.643000000
O     4.322000000    -8.293000000     2.128000000
H     4.927000000    -7.892000000     1.503000000
H     4.081000000    -7.581000000     2.719000000
O     7.083000000    -5.334000000     7.017000000
H     6.260000000    -5.427000000     6.539000000
H     7.282000000    -4.398000000     6.972000000
O     6.286000000    -5.005000000     1.238000000
H     5.600000000    -4.416000000     1.552000000
H     6.800000000    -4.472000000     0.632000000
O     6.149000000    -0.984000000     5.543000000
H     6.463000000    -0.811000000     6.430000000
H     6.507000000    -1.845000000     5.325000000
O     3.415000000    -1.701000000     5.476000000
H     4.337000000    -1.907000000     5.627000000
H     3.111000000    -2.386000000     4.881000000
O     3.959000000    -6.261000000     3.574000000
H     4.286000000    -6.071000000     4.453000000
H     3.688000000    -5.410000000     3.230000000
O     9.534000000    -3.122000000     3.053000000
H     8.784000000    -3.063000000     3.643000000
H     9.547000000    -4.037000000     2.771000000
O     6.643000000    -7.622000000     1.380000000
H     6.858000000    -7.765000000     2.301000000
H     6.519000000    -6.676000000     1.306000000
O     6.941000000    -7.071000000     4.552000000
H     7.126000000    -7.980000000     4.320000000
H     7.261000000    -6.983000000     5.450000000
O     6.562000000    -3.260000000     3.568000000
H     5.910000000    -3.220000000     2.869000000
H     6.120000000    -3.719000000     4.282000000
O     3.302000000     0.834000000     4.858000000
H     2.725000000     1.226000000     5.514000000
H     3.406000000    -0.074000000     5.144000000
O     4.498000000    -5.003000000     5.863000000
H     4.058000000    -5.408000000     6.610000000
H     3.797000000    -4.565000000     5.381000000
O     1.074000000    -4.159000000     7.979000000
H     1.526000000    -4.905000000     7.584000000
H     0.480000000    -4.551000000     8.619000000
O     5.876000000    -0.803000000     1.560000000
H     5.250000000    -0.086000000     1.455000000
H     5.333000000    -1.573000000     1.727000000
O     1.189000000    -7.204000000     5.410000000
H     1.272000000    -7.798000000     4.664000000
H     1.893000000    -6.568000000     5.289000000
O     8.190000000    -1.707000000     0.707000000
H     7.309000000    -1.417000000     0.940000000
H     8.568000000    -2.014000000     1.531000000
