201
-1246.07717
C    -1.649000000    -3.235000000     2.653000000
H    -1.366000000    -3.549000000     1.651000000
C    -2.649000000    -2.297000000     2.840000000
C    -2.936000000    -1.756000000     4.138000000
H    -3.751000000    -1.048000000     4.270000000
C    -3.448000000    -1.846000000     1.614000000
O    -3.903000000    -2.889000000     0.817000000
H    -2.739000000    -1.290000000     0.984000000
O    -4.581000000    -0.965000000     2.027000000
C    -4.511000000     0.193000000     1.274000000
C    -3.932000000     1.311000000     1.901000000
H    -3.653000000     1.258000000     2.950000000
C    -3.701000000     2.463000000     1.207000000
O    -2.967000000     3.409000000     1.857000000
C    -3.971000000     2.525000000    -0.177000000
C    -3.914000000     3.866000000    -0.905000000
H    -4.708000000     4.052000000    -1.631000000
C    -2.550000000     3.979000000    -1.559000000
C    -2.381000000     3.467000000    -2.822000000
H    -3.278000000     3.118000000    -3.326000000
H    -4.136000000     4.648000000    -0.176000000
C    -4.482000000     1.343000000    -0.820000000
H    -4.597000000     1.356000000    -1.901000000
C    -4.742000000     0.203000000    -0.124000000
C    -5.433000000    -0.973000000    -0.719000000
H    -6.139000000    -0.651000000    -1.488000000
H    -5.977000000    -1.478000000     0.082000000
C    -4.347000000    -1.866000000    -1.342000000
C    -4.120000000    -1.866000000    -2.763000000
H    -4.723000000    -1.229000000    -3.405000000
C    -3.663000000    -2.784000000    -0.575000000
C    -2.617000000    -3.529000000    -1.133000000
H    -1.994000000    -4.204000000    -0.552000000
C    -2.375000000    -3.498000000    -2.501000000
O    -1.168000000    -4.066000000    -2.942000000
C     0.100000000    -3.315000000    -2.781000000
C     1.171000000    -4.167000000    -2.093000000
C     2.462000000    -3.636000000    -2.090000000
H     2.630000000    -2.658000000    -2.534000000
C     0.910000000    -5.380000000    -1.448000000
H    -0.073000000    -5.827000000    -1.567000000
O     0.510000000    -2.936000000    -4.061000000
H    -0.185000000    -2.430000000    -2.194000000
C    -3.038000000    -2.611000000    -3.354000000
C    -2.442000000    -2.318000000    -4.719000000
H    -3.125000000    -1.852000000    -5.433000000
H    -2.093000000    -3.223000000    -5.222000000
C    -1.244000000    -1.379000000    -4.602000000
C    -1.538000000    -0.023000000    -4.791000000
H    -2.571000000     0.233000000    -5.010000000
C     0.127000000    -1.677000000    -4.422000000
C     1.164000000    -0.722000000    -4.443000000
H     2.164000000    -1.067000000    -4.195000000
C     0.789000000     0.630000000    -4.542000000
O     1.791000000     1.514000000    -4.391000000
C     1.809000000     2.282000000    -3.157000000
C     3.292000000     2.448000000    -2.624000000
C     4.254000000     1.441000000    -2.986000000
H     3.907000000     0.568000000    -3.532000000
C     3.705000000     3.497000000    -1.788000000
H     2.927000000     4.145000000    -1.394000000
O     1.204000000     3.579000000    -3.214000000
H     1.237000000     1.683000000    -2.434000000
C    -0.558000000     1.017000000    -4.724000000
C    -1.037000000     2.499000000    -4.761000000
H    -1.997000000     2.372000000    -5.266000000
H    -0.403000000     3.102000000    -5.415000000
C    -1.151000000     3.228000000    -3.389000000
C    -0.028000000     3.693000000    -2.684000000
C    -0.197000000     4.275000000    -1.385000000
H     0.666000000     4.546000000    -0.783000000
C    -1.470000000     4.419000000    -0.840000000
O    -1.549000000     4.817000000     0.500000000
C    -1.598000000     3.747000000     1.429000000
H    -1.217000000     2.894000000     0.850000000
C    -0.676000000     3.815000000     2.648000000
C    -1.040000000     3.352000000     3.873000000
H    -2.031000000     2.974000000     4.114000000
C     0.646000000     4.376000000     2.527000000
H     0.948000000     4.748000000     1.551000000
C     1.564000000     4.404000000     3.575000000
O     2.828000000     4.845000000     3.354000000
C     1.108000000     3.975000000     4.836000000
H     1.796000000     3.982000000     5.678000000
C    -0.142000000     3.430000000     4.964000000
O    -0.461000000     2.856000000     6.257000000
C    -1.527000000     2.032000000     6.407000000
C    -1.386000000     0.629000000     6.267000000
H    -0.450000000     0.144000000     6.001000000
C    -2.769000000     2.592000000     6.716000000
H    -2.864000000     3.672000000     6.642000000
C    -3.835000000     1.749000000     6.944000000
H    -4.832000000     2.147000000     7.116000000
C    -3.646000000     0.328000000     6.976000000
H    -4.478000000    -0.347000000     7.157000000
C    -2.439000000    -0.211000000     6.577000000
O    -2.281000000    -1.571000000     6.467000000
C    -2.168000000    -2.162000000     5.218000000
C    -1.224000000    -3.110000000     5.006000000
H    -0.539000000    -3.394000000     5.800000000
C    -0.982000000    -3.665000000     3.744000000
O     0.100000000    -4.469000000     3.538000000
C    -0.040000000    -5.690000000     2.894000000
C     0.865000000    -5.894000000     1.885000000
H     1.614000000    -5.119000000     1.739000000
C    -1.066000000    -6.602000000     3.208000000
H    -1.781000000    -6.394000000     4.000000000
C    -1.122000000    -7.755000000     2.425000000
H    -1.919000000    -8.477000000     2.585000000
C    -0.192000000    -7.955000000     1.369000000
H    -0.264000000    -8.807000000     0.698000000
C     0.821000000    -7.058000000     1.126000000
O     1.625000000    -7.159000000    -0.030000000
C     1.908000000    -6.036000000    -0.737000000
C     3.190000000    -5.498000000    -0.725000000
H     3.968000000    -5.883000000    -0.071000000
C     3.481000000    -4.322000000    -1.487000000
O     4.701000000    -3.740000000    -1.393000000
C     5.296000000    -2.911000000    -2.371000000
C     5.614000000    -1.636000000    -2.073000000
H     5.348000000    -1.140000000    -1.143000000
C     5.739000000    -3.503000000    -3.569000000
H     5.573000000    -4.571000000    -3.689000000
C     6.318000000    -2.732000000    -4.544000000
H     6.501000000    -3.203000000    -5.506000000
C     6.558000000    -1.361000000    -4.252000000
H     6.965000000    -0.747000000    -5.051000000
C     6.262000000    -0.807000000    -3.025000000
O     6.552000000     0.539000000    -2.783000000
C     5.587000000     1.520000000    -2.561000000
C     6.007000000     2.682000000    -1.828000000
H     7.015000000     2.637000000    -1.423000000
C     5.002000000     3.624000000    -1.379000000
O     5.417000000     4.684000000    -0.649000000
C     4.642000000     5.251000000     0.252000000
C     4.233000000     6.602000000    -0.037000000
H     4.522000000     6.986000000    -1.012000000
C     3.396000000     7.336000000     0.750000000
H     3.053000000     8.305000000     0.396000000
C     2.917000000     6.792000000     1.919000000
H     2.146000000     7.291000000     2.500000000
C     3.319000000     5.522000000     2.247000000
C     4.232000000     4.745000000     1.513000000
H     4.587000000     3.792000000     1.895000000
O     7.161000000    -4.025000000     0.244000000
H     6.322000000    -4.198000000     0.670000000
H     6.988000000    -4.157000000    -0.688000000
O     4.720000000    -3.438000000     7.447000000
H     5.373000000    -3.421000000     6.747000000
H     4.990000000    -4.164000000     8.009000000
O     0.397000000     0.236000000     3.512000000
H     0.429000000    -0.530000000     2.939000000
H     0.363000000     0.982000000     2.913000000
O     6.386000000     1.422000000     2.094000000
H     7.163000000     0.980000000     1.751000000
H     5.656000000     0.862000000     1.830000000
O     6.096000000    -7.292000000     2.977000000
H     5.888000000    -6.359000000     3.028000000
H     5.502000000    -7.633000000     2.308000000
O     9.152000000     0.394000000    -1.699000000
H     8.212000000     0.311000000    -1.858000000
H     9.492000000     0.821000000    -2.486000000
O     6.730000000    -1.040000000     4.869000000
H     5.813000000    -1.254000000     5.038000000
H     6.868000000    -1.282000000     3.953000000
O     3.282000000    -5.686000000     4.758000000
H     3.879000000    -5.416000000     4.060000000
H     2.817000000    -4.885000000     4.999000000
O     9.560000000    -2.323000000     3.311000000
H     8.713000000    -2.049000000     2.959000000
H     9.579000000    -3.271000000     3.181000000
O     2.578000000     0.760000000     4.994000000
H     1.759000000     0.503000000     4.571000000
H     3.193000000     0.061000000     4.772000000
O     2.302000000    -3.484000000     6.193000000
H     1.853000000    -2.894000000     6.799000000
H     3.155000000    -3.641000000     6.598000000
O     4.098000000    -1.530000000     4.878000000
H     3.449000000    -1.951000000     5.442000000
H     4.015000000    -1.983000000     4.038000000
O     7.624000000     3.946000000     2.152000000
H     7.160000000     3.151000000     1.888000000
H     7.252000000     4.168000000     3.005000000
O     3.155000000     2.091000000     7.133000000
H     2.620000000     1.620000000     7.772000000
H     2.922000000     1.700000000     6.291000000
O     8.764000000     0.075000000     0.980000000
H     8.317000000    -0.731000000     1.238000000
H     9.005000000    -0.067000000     0.065000000
O     7.183000000    -1.828000000     2.125000000
H     7.129000000    -2.689000000     1.709000000
H     6.347000000    -1.410000000     1.922000000
O     5.436000000    -4.650000000     3.065000000
H     4.918000000    -3.853000000     2.949000000
H     5.839000000    -4.550000000     3.927000000
O     8.192000000    -5.718000000     2.225000000
H     7.872000000    -5.113000000     1.556000000
H     7.546000000    -6.424000000     2.240000000
O     6.122000000     1.822000000     4.881000000
H     6.108000000     0.866000000     4.932000000
H     6.067000000     2.012000000     3.944000000
