201
-1248.82417
C    -1.998000000    -4.086000000     1.781000000
H    -1.863000000    -4.435000000     0.761000000
C    -2.859000000    -2.999000000     2.063000000
C    -2.897000000    -2.444000000     3.355000000
H    -3.499000000    -1.562000000     3.557000000
C    -3.478000000    -2.243000000     0.849000000
O    -3.824000000    -3.054000000    -0.308000000
H    -2.738000000    -1.477000000     0.572000000
O    -4.538000000    -1.499000000     1.244000000
C    -4.584000000    -0.179000000     0.941000000
C    -4.223000000     0.762000000     1.880000000
H    -3.888000000     0.434000000     2.860000000
C    -3.976000000     2.087000000     1.441000000
O    -3.333000000     2.897000000     2.281000000
C    -4.277000000     2.492000000     0.108000000
C    -3.951000000     3.898000000    -0.380000000
H    -4.776000000     4.216000000    -1.021000000
C    -2.551000000     4.006000000    -0.896000000
C    -2.283000000     3.812000000    -2.247000000
H    -3.083000000     3.608000000    -2.954000000
H    -3.982000000     4.597000000     0.458000000
C    -4.654000000     1.515000000    -0.812000000
H    -4.614000000     1.664000000    -1.888000000
C    -4.816000000     0.169000000    -0.383000000
C    -5.228000000    -0.812000000    -1.481000000
H    -5.931000000    -0.325000000    -2.160000000
H    -5.826000000    -1.603000000    -1.023000000
C    -4.052000000    -1.446000000    -2.158000000
C    -3.640000000    -1.011000000    -3.423000000
H    -4.181000000    -0.223000000    -3.940000000
C    -3.458000000    -2.535000000    -1.548000000
C    -2.368000000    -3.162000000    -2.243000000
H    -1.814000000    -3.973000000    -1.777000000
C    -1.954000000    -2.722000000    -3.474000000
O    -0.723000000    -3.223000000    -3.907000000
C     0.431000000    -2.437000000    -3.562000000
C     1.567000000    -3.398000000    -3.137000000
C     2.832000000    -2.908000000    -2.800000000
H     2.985000000    -1.847000000    -2.981000000
C     1.252000000    -4.713000000    -2.685000000
H     0.312000000    -5.177000000    -2.974000000
O     0.780000000    -1.726000000    -4.756000000
H     0.253000000    -1.654000000    -2.811000000
C    -2.558000000    -1.625000000    -4.061000000
C    -1.905000000    -1.052000000    -5.344000000
H    -2.640000000    -0.536000000    -5.964000000
H    -1.563000000    -1.868000000    -5.986000000
C    -0.844000000     0.002000000    -5.066000000
C    -1.200000000     1.337000000    -4.896000000
H    -2.227000000     1.649000000    -5.070000000
C     0.468000000    -0.410000000    -4.837000000
C     1.397000000     0.521000000    -4.388000000
H     2.417000000     0.166000000    -4.265000000
C     1.065000000     1.885000000    -4.258000000
O     2.067000000     2.804000000    -3.832000000
C     2.036000000     3.021000000    -2.399000000
C     3.402000000     2.934000000    -1.737000000
C     4.373000000     1.975000000    -2.153000000
H     4.212000000     1.365000000    -3.039000000
C     3.685000000     3.842000000    -0.682000000
H     2.951000000     4.612000000    -0.460000000
O     1.354000000     4.254000000    -2.154000000
H     1.347000000     2.272000000    -1.982000000
C    -0.227000000     2.252000000    -4.539000000
C    -0.700000000     3.695000000    -4.301000000
H    -1.678000000     3.905000000    -4.740000000
H     0.001000000     4.463000000    -4.633000000
C    -0.974000000     3.970000000    -2.770000000
C    -0.030000000     4.309000000    -1.846000000
C    -0.352000000     4.564000000    -0.528000000
H     0.452000000     4.826000000     0.155000000
C    -1.566000000     4.432000000     0.036000000
O    -1.679000000     4.472000000     1.401000000
C    -1.914000000     3.227000000     2.082000000
H    -1.592000000     2.470000000     1.352000000
C    -1.069000000     3.003000000     3.315000000
C    -1.687000000     2.490000000     4.439000000
H    -2.739000000     2.221000000     4.466000000
C     0.299000000     3.235000000     3.310000000
H     0.658000000     3.696000000     2.393000000
C     1.069000000     3.123000000     4.477000000
O     2.462000000     3.297000000     4.488000000
C     0.489000000     2.675000000     5.658000000
H     1.048000000     2.560000000     6.583000000
C    -0.869000000     2.370000000     5.612000000
O    -1.445000000     1.821000000     6.674000000
C    -2.296000000     0.788000000     6.623000000
C    -1.965000000    -0.418000000     6.080000000
H    -0.986000000    -0.600000000     5.646000000
C    -3.547000000     0.933000000     7.150000000
H    -3.704000000     1.892000000     7.637000000
C    -4.427000000    -0.112000000     7.237000000
H    -5.367000000     0.072000000     7.751000000
C    -4.077000000    -1.377000000     6.699000000
H    -4.735000000    -2.238000000     6.779000000
C    -2.848000000    -1.515000000     6.048000000
O    -2.443000000    -2.772000000     5.665000000
C    -2.244000000    -3.126000000     4.373000000
C    -1.561000000    -4.291000000     4.130000000
H    -1.123000000    -4.842000000     4.958000000
C    -1.285000000    -4.681000000     2.838000000
O    -0.452000000    -5.786000000     2.718000000
C    -0.364000000    -6.453000000     1.532000000
C     0.654000000    -6.124000000     0.642000000
H     1.330000000    -5.275000000     0.697000000
C    -1.113000000    -7.584000000     1.321000000
H    -1.937000000    -7.746000000     2.011000000
C    -1.022000000    -8.385000000     0.217000000
H    -1.724000000    -9.201000000     0.064000000
C     0.001000000    -8.049000000    -0.745000000
H     0.232000000    -8.747000000    -1.546000000
C     0.802000000    -6.960000000    -0.487000000
O     1.748000000    -6.735000000    -1.488000000
C     2.129000000    -5.470000000    -1.958000000
C     3.392000000    -4.963000000    -1.661000000
H     4.173000000    -5.452000000    -1.083000000
C     3.719000000    -3.688000000    -2.054000000
O     5.002000000    -3.213000000    -1.792000000
C     5.586000000    -2.202000000    -2.492000000
C     5.799000000    -0.972000000    -1.913000000
H     5.291000000    -0.718000000    -0.986000000
C     6.120000000    -2.474000000    -3.761000000
H     6.231000000    -3.491000000    -4.129000000
C     6.868000000    -1.487000000    -4.468000000
H     7.554000000    -1.827000000    -5.239000000
C     7.121000000    -0.241000000    -3.808000000
H     7.808000000     0.453000000    -4.284000000
C     6.523000000     0.010000000    -2.590000000
O     6.694000000     1.301000000    -2.057000000
C     5.682000000     2.105000000    -1.627000000
C     5.966000000     2.975000000    -0.650000000
H     6.903000000     2.927000000    -0.100000000
C     4.979000000     3.870000000    -0.144000000
O     5.271000000     4.795000000     0.831000000
C     4.443000000     5.071000000     1.907000000
C     4.162000000     6.378000000     2.298000000
H     4.622000000     7.184000000     1.732000000
C     3.201000000     6.652000000     3.295000000
H     3.143000000     7.658000000     3.702000000
C     2.686000000     5.639000000     4.004000000
H     2.114000000     5.771000000     4.919000000
C     3.060000000     4.306000000     3.740000000
C     3.827000000     4.006000000     2.620000000
H     4.029000000     2.981000000     2.319000000
O     0.073000000    -7.658000000     5.197000000
H    -0.166000000    -7.565000000     6.119000000
H    -0.747000000    -7.889000000     4.760000000
O     5.486000000    -1.970000000     2.080000000
H     5.801000000    -2.571000000     1.405000000
H     4.759000000    -2.435000000     2.494000000
O     1.532000000    -5.467000000     5.580000000
H     0.880000000    -6.055000000     5.200000000
H     1.660000000    -4.790000000     4.915000000
O     4.936000000     0.685000000     1.246000000
H     4.024000000     0.748000000     1.530000000
H     5.066000000    -0.246000000     1.065000000
O     4.452000000    -1.537000000     6.604000000
H     5.167000000    -2.172000000     6.555000000
H     4.547000000    -1.136000000     7.468000000
O     5.069000000    -7.349000000     4.225000000
H     4.983000000    -6.417000000     4.424000000
H     4.183000000    -7.627000000     3.994000000
O     7.010000000    -4.728000000     3.253000000
H     6.854000000    -4.318000000     2.403000000
H     6.172000000    -4.657000000     3.711000000
O    -0.315000000    -1.417000000     8.339000000
H     0.386000000    -1.613000000     7.718000000
H    -0.536000000    -0.501000000     8.168000000
O     4.280000000    -8.150000000    -0.685000000
H     3.604000000    -7.492000000    -0.527000000
H     4.610000000    -8.369000000     0.187000000
O     6.672000000    -6.685000000     0.366000000
H     7.117000000    -7.533000000     0.356000000
H     5.748000000    -6.901000000     0.487000000
O     2.431000000     0.983000000     2.318000000
H     2.293000000     1.390000000     3.173000000
H     1.686000000     0.393000000     2.210000000
O     1.318000000    -1.503000000     5.733000000
H     2.195000000    -1.290000000     6.053000000
H     1.470000000    -2.008000000     4.934000000
O     1.079000000    -4.265000000     8.692000000
H     1.814000000    -3.868000000     9.158000000
H     1.372000000    -4.317000000     7.782000000
O     5.865000000    -0.113000000     4.272000000
H     5.431000000    -0.719000000     4.872000000
H     5.530000000    -0.352000000     3.407000000
O     4.506000000    -4.729000000     4.340000000
H     4.075000000    -4.242000000     3.637000000
H     4.094000000    -4.407000000     5.141000000
O     2.267000000    -7.940000000     3.537000000
H     1.567000000    -7.473000000     3.993000000
H     1.828000000    -8.685000000     3.125000000
O     6.640000000    -3.811000000     0.504000000
H     6.599000000    -3.358000000    -0.338000000
H     6.632000000    -4.741000000     0.276000000
O     2.908000000    -6.543000000     7.413000000
H     2.337000000    -6.206000000     6.723000000
H     3.794000000    -6.364000000     7.099000000
O     3.433000000    -6.096000000     1.389000000
H     3.092000000    -6.505000000     2.185000000
H     3.544000000    -5.175000000     1.622000000
