201
-1256.51798
C    -1.464000000    -4.295000000     2.405000000
H    -1.379000000    -4.848000000     1.473000000
C    -2.446000000    -3.287000000     2.537000000
C    -2.696000000    -2.648000000     3.755000000
H    -3.505000000    -1.923000000     3.734000000
C    -3.098000000    -2.683000000     1.285000000
O    -3.322000000    -3.668000000     0.236000000
H    -2.420000000    -1.912000000     0.889000000
O    -4.302000000    -1.979000000     1.535000000
C    -4.428000000    -0.774000000     0.813000000
C    -4.331000000     0.457000000     1.555000000
H    -4.152000000     0.361000000     2.623000000
C    -4.414000000     1.691000000     0.994000000
O    -3.940000000     2.746000000     1.673000000
C    -4.715000000     1.749000000    -0.363000000
C    -4.600000000     3.039000000    -1.131000000
H    -5.264000000     2.973000000    -1.995000000
C    -3.153000000     3.338000000    -1.560000000
C    -2.793000000     2.804000000    -2.799000000
H    -3.495000000     2.151000000    -3.311000000
H    -5.060000000     3.837000000    -0.545000000
C    -4.868000000     0.541000000    -1.100000000
H    -5.140000000     0.568000000    -2.152000000
C    -4.773000000    -0.731000000    -0.542000000
C    -4.999000000    -2.002000000    -1.370000000
H    -5.714000000    -1.851000000    -2.182000000
H    -5.588000000    -2.656000000    -0.723000000
C    -3.674000000    -2.617000000    -1.936000000
C    -3.158000000    -2.267000000    -3.172000000
H    -3.774000000    -1.747000000    -3.901000000
C    -2.922000000    -3.458000000    -1.124000000
C    -1.653000000    -3.950000000    -1.518000000
H    -1.009000000    -4.362000000    -0.746000000
C    -1.116000000    -3.631000000    -2.791000000
O     0.233000000    -3.991000000    -3.125000000
C     1.170000000    -2.933000000    -2.925000000
C     2.362000000    -3.588000000    -2.199000000
C     3.624000000    -2.939000000    -2.308000000
H     3.682000000    -2.049000000    -2.929000000
C     2.289000000    -4.802000000    -1.442000000
H     1.303000000    -5.259000000    -1.421000000
O     1.501000000    -2.333000000    -4.177000000
H     0.760000000    -2.188000000    -2.227000000
C    -1.923000000    -2.820000000    -3.659000000
C    -1.348000000    -2.401000000    -5.043000000
H    -2.184000000    -2.298000000    -5.738000000
H    -0.637000000    -3.049000000    -5.557000000
C    -0.549000000    -1.149000000    -4.867000000
C    -1.145000000     0.136000000    -4.839000000
H    -2.200000000     0.329000000    -5.015000000
C     0.860000000    -1.205000000    -4.543000000
C     1.637000000    -0.111000000    -4.209000000
H     2.626000000    -0.206000000    -3.768000000
C     0.997000000     1.159000000    -4.327000000
O     1.773000000     2.235000000    -4.013000000
C     1.689000000     2.852000000    -2.718000000
C     3.086000000     3.374000000    -2.266000000
C     4.215000000     2.579000000    -2.351000000
H     4.151000000     1.611000000    -2.840000000
C     3.161000000     4.515000000    -1.511000000
H     2.210000000     5.008000000    -1.324000000
O     0.710000000     3.904000000    -2.859000000
H     1.356000000     2.109000000    -1.978000000
C    -0.364000000     1.258000000    -4.635000000
C    -1.067000000     2.589000000    -4.720000000
H    -1.912000000     2.543000000    -5.410000000
H    -0.353000000     3.325000000    -5.096000000
C    -1.483000000     2.970000000    -3.320000000
C    -0.565000000     3.634000000    -2.520000000
C    -0.936000000     4.089000000    -1.220000000
H    -0.205000000     4.603000000    -0.603000000
C    -2.248000000     4.048000000    -0.776000000
O    -2.593000000     4.411000000     0.479000000
C    -2.623000000     3.359000000     1.475000000
H    -2.025000000     2.505000000     1.123000000
C    -1.802000000     3.645000000     2.705000000
C    -2.215000000     2.963000000     3.860000000
H    -3.105000000     2.340000000     3.870000000
C    -0.575000000     4.371000000     2.696000000
H    -0.310000000     4.930000000     1.802000000
C     0.166000000     4.417000000     3.888000000
O     1.435000000     5.043000000     3.878000000
C    -0.320000000     3.761000000     5.018000000
H     0.245000000     3.704000000     5.945000000
C    -1.499000000     3.015000000     5.009000000
O    -1.796000000     2.344000000     6.171000000
C    -2.562000000     1.215000000     6.323000000
C    -2.123000000    -0.142000000     5.983000000
H    -1.100000000    -0.321000000     5.663000000
C    -3.806000000     1.399000000     6.884000000
H    -4.107000000     2.408000000     7.156000000
C    -4.614000000     0.299000000     7.075000000
H    -5.597000000     0.524000000     7.480000000
C    -4.180000000    -0.990000000     6.845000000
H    -4.803000000    -1.843000000     7.099000000
C    -2.973000000    -1.212000000     6.216000000
O    -2.548000000    -2.534000000     6.142000000
C    -2.090000000    -3.043000000     4.876000000
C    -1.208000000    -4.110000000     4.844000000
H    -0.845000000    -4.501000000     5.791000000
C    -0.893000000    -4.742000000     3.598000000
O    -0.044000000    -5.858000000     3.599000000
C     0.479000000    -6.501000000     2.490000000
C     1.553000000    -5.923000000     1.750000000
H     1.781000000    -4.910000000     2.072000000
C     0.080000000    -7.816000000     2.228000000
H    -0.775000000    -8.221000000     2.764000000
C     0.655000000    -8.603000000     1.168000000
H     0.209000000    -9.559000000     0.904000000
C     1.745000000    -8.056000000     0.449000000
H     2.335000000    -8.587000000    -0.293000000
C     2.202000000    -6.735000000     0.749000000
O     3.351000000    -6.382000000     0.012000000
C     3.430000000    -5.228000000    -0.746000000
C     4.577000000    -4.450000000    -0.680000000
H     5.410000000    -4.655000000    -0.013000000
C     4.660000000    -3.297000000    -1.460000000
O     5.732000000    -2.444000000    -1.200000000
C     6.047000000    -1.448000000    -2.032000000
C     6.061000000    -0.134000000    -1.542000000
H     5.706000000    -0.024000000    -0.521000000
C     6.541000000    -1.720000000    -3.315000000
H     6.501000000    -2.739000000    -3.692000000
C     6.997000000    -0.644000000    -4.095000000
H     7.468000000    -0.802000000    -5.062000000
C     6.962000000     0.648000000    -3.640000000
H     7.390000000     1.404000000    -4.294000000
C     6.494000000     0.900000000    -2.339000000
O     6.586000000     2.175000000    -1.804000000
C     5.464000000     2.995000000    -1.889000000
C     5.505000000     4.208000000    -1.196000000
H     6.464000000     4.517000000    -0.788000000
C     4.343000000     4.961000000    -0.813000000
O     4.343000000     6.001000000     0.088000000
C     3.299000000     6.374000000     0.901000000
C     2.685000000     7.578000000     0.743000000
H     3.056000000     8.306000000     0.026000000
C     1.630000000     7.865000000     1.588000000
H     1.064000000     8.789000000     1.495000000
C     1.156000000     7.002000000     2.566000000
H     0.263000000     7.305000000     3.108000000
C     1.810000000     5.833000000     2.805000000
C     2.910000000     5.510000000     1.918000000
H     3.457000000     4.574000000     1.988000000
O     8.159000000    -4.564000000     2.066000000
H     8.143000000    -4.305000000     1.145000000
H     7.254000000    -4.459000000     2.360000000
O     7.737000000    -7.269000000     2.418000000
H     7.978000000    -6.350000000     2.303000000
H     6.827000000    -7.317000000     2.122000000
O     1.918000000    -4.014000000     5.207000000
H     1.702000000    -4.641000000     5.897000000
H     2.759000000    -3.644000000     5.475000000
O     3.387000000     2.806000000     4.200000000
H     2.490000000     2.877000000     3.873000000
H     3.331000000     2.170000000     4.914000000
O     9.635000000    -0.122000000     4.941000000
H     9.052000000     0.571000000     4.632000000
H     9.255000000    -0.928000000     4.590000000
O     9.280000000    -3.205000000     6.131000000
H    10.220000000    -3.223000000     6.310000000
H     9.219000000    -3.125000000     5.179000000
O     6.163000000    -1.014000000     6.693000000
H     6.670000000    -0.602000000     5.993000000
H     6.800000000    -1.172000000     7.390000000
O     5.794000000    -4.843000000     3.266000000
H     5.513000000    -3.939000000     3.405000000
H     6.108000000    -5.131000000     4.123000000
O     6.831000000     0.602000000     4.387000000
H     6.760000000     0.170000000     3.535000000
H     6.629000000     1.520000000     4.206000000
O     4.643000000    -5.202000000     6.211000000
H     5.573000000    -5.413000000     6.123000000
H     4.533000000    -4.390000000     5.717000000
O     6.064000000     3.604000000     4.057000000
H     5.177000000     3.343000000     3.811000000
H     5.939000000     4.262000000     4.741000000
O     8.187000000    -4.332000000    -0.557000000
H     8.209000000    -4.973000000    -1.267000000
H     7.584000000    -3.654000000    -0.865000000
O     9.885000000     2.549000000     1.982000000
H     9.322000000     3.324000000     1.983000000
H     9.314000000     1.839000000     1.690000000
O     1.679000000    -1.116000000     5.867000000
H     1.102000000    -1.530000000     6.510000000
H     1.839000000    -1.798000000     5.215000000
O     8.473000000     0.330000000     1.611000000
H     7.809000000    -0.321000000     1.839000000
H     9.197000000    -0.183000000     1.251000000
O     3.176000000     1.158000000     6.220000000
H     3.901000000     0.781000000     6.719000000
H     2.683000000     0.401000000     5.905000000
O    10.314000000    -1.192000000     0.111000000
H    10.792000000    -1.308000000     0.932000000
H    10.615000000    -1.911000000    -0.445000000
O     8.268000000    -2.138000000     3.515000000
H     7.329000000    -2.011000000     3.381000000
H     8.530000000    -2.741000000     2.820000000
O     4.196000000    -2.442000000     5.449000000
H     4.803000000    -1.891000000     5.944000000
H     4.541000000    -2.435000000     4.556000000
