201
-1264.31081
C    -2.109000000    -3.667000000     1.733000000
H    -1.748000000    -3.922000000     0.740000000
C    -3.152000000    -2.817000000     2.008000000
C    -3.547000000    -2.580000000     3.320000000
H    -4.375000000    -1.945000000     3.627000000
C    -3.757000000    -2.100000000     0.781000000
O    -4.233000000    -2.974000000    -0.217000000
H    -2.986000000    -1.555000000     0.216000000
O    -4.788000000    -1.226000000     1.195000000
C    -4.617000000     0.072000000     0.705000000
C    -4.080000000     1.041000000     1.522000000
H    -3.637000000     0.809000000     2.487000000
C    -3.931000000     2.296000000     1.074000000
O    -3.309000000     3.171000000     2.027000000
C    -4.353000000     2.687000000    -0.211000000
C    -4.047000000     4.056000000    -0.701000000
H    -4.631000000     4.413000000    -1.552000000
C    -2.567000000     4.180000000    -1.102000000
C    -2.163000000     3.940000000    -2.439000000
H    -2.889000000     3.730000000    -3.221000000
H    -4.113000000     4.855000000     0.040000000
C    -4.842000000     1.709000000    -1.076000000
H    -5.010000000     1.959000000    -2.120000000
C    -5.040000000     0.392000000    -0.603000000
C    -5.496000000    -0.716000000    -1.554000000
H    -6.018000000    -0.247000000    -2.390000000
H    -6.166000000    -1.328000000    -0.946000000
C    -4.353000000    -1.506000000    -2.130000000
C    -3.757000000    -1.041000000    -3.272000000
H    -4.090000000    -0.112000000    -3.729000000
C    -3.818000000    -2.638000000    -1.472000000
C    -2.668000000    -3.253000000    -1.948000000
H    -2.217000000    -4.091000000    -1.423000000
C    -2.052000000    -2.793000000    -3.147000000
O    -0.833000000    -3.407000000    -3.538000000
C     0.365000000    -2.661000000    -3.218000000
C     1.575000000    -3.537000000    -2.793000000
C     2.887000000    -3.268000000    -3.146000000
H     3.147000000    -2.399000000    -3.744000000
C     1.301000000    -4.640000000    -2.008000000
H     0.275000000    -4.939000000    -1.805000000
O     0.734000000    -1.853000000    -4.337000000
H     0.258000000    -2.116000000    -2.268000000
C    -2.582000000    -1.677000000    -3.760000000
C    -1.931000000    -1.045000000    -4.975000000
H    -2.708000000    -0.560000000    -5.570000000
H    -1.565000000    -1.804000000    -5.669000000
C    -0.835000000    -0.069000000    -4.634000000
C    -1.070000000     1.338000000    -4.617000000
H    -2.099000000     1.603000000    -4.846000000
C     0.448000000    -0.541000000    -4.334000000
C     1.461000000     0.399000000    -4.170000000
H     2.448000000    -0.006000000    -3.960000000
C     1.229000000     1.762000000    -4.126000000
O     2.162000000     2.557000000    -3.628000000
C     2.064000000     2.843000000    -2.215000000
C     3.360000000     2.532000000    -1.416000000
C     4.251000000     1.600000000    -1.935000000
H     4.108000000     1.146000000    -2.912000000
C     3.657000000     3.039000000    -0.107000000
H     2.916000000     3.702000000     0.332000000
O     1.503000000     4.156000000    -2.103000000
H     1.269000000     2.218000000    -1.784000000
C    -0.066000000     2.256000000    -4.374000000
C    -0.442000000     3.705000000    -4.246000000
H    -1.281000000     4.016000000    -4.872000000
H     0.366000000     4.312000000    -4.658000000
C    -0.834000000     4.089000000    -2.817000000
C     0.153000000     4.294000000    -1.885000000
C    -0.221000000     4.591000000    -0.589000000
H     0.503000000     4.897000000     0.162000000
C    -1.552000000     4.555000000    -0.197000000
O    -1.786000000     4.624000000     1.149000000
C    -1.933000000     3.337000000     1.843000000
H    -1.372000000     2.576000000     1.281000000
C    -1.232000000     3.374000000     3.216000000
C    -1.434000000     2.410000000     4.165000000
H    -2.275000000     1.727000000     4.074000000
C    -0.112000000     4.185000000     3.357000000
H     0.150000000     4.954000000     2.635000000
C     0.670000000     4.183000000     4.538000000
O     1.627000000     5.079000000     4.740000000
C     0.567000000     3.136000000     5.437000000
H     1.052000000     3.168000000     6.409000000
C    -0.499000000     2.266000000     5.294000000
O    -0.701000000     1.297000000     6.230000000
C    -1.833000000     0.592000000     6.351000000
C    -1.881000000    -0.753000000     5.997000000
H    -1.042000000    -1.272000000     5.541000000
C    -2.793000000     1.109000000     7.253000000
H    -2.634000000     2.013000000     7.836000000
C    -4.016000000     0.413000000     7.284000000
H    -4.826000000     0.876000000     7.843000000
C    -4.181000000    -0.883000000     6.702000000
H    -5.099000000    -1.428000000     6.903000000
C    -3.056000000    -1.418000000     6.128000000
O    -3.039000000    -2.750000000     5.739000000
C    -2.823000000    -3.079000000     4.416000000
C    -1.762000000    -3.875000000     4.134000000
H    -1.149000000    -4.260000000     4.946000000
C    -1.453000000    -4.240000000     2.835000000
O    -0.506000000    -5.227000000     2.700000000
C    -0.430000000    -6.112000000     1.652000000
C     0.640000000    -6.008000000     0.774000000
H     1.271000000    -5.123000000     0.802000000
C    -1.310000000    -7.198000000     1.573000000
H    -2.113000000    -7.217000000     2.305000000
C    -1.047000000    -8.113000000     0.531000000
H    -1.711000000    -8.965000000     0.403000000
C     0.054000000    -8.030000000    -0.339000000
H     0.202000000    -8.754000000    -1.136000000
C     0.919000000    -6.914000000    -0.220000000
O     2.031000000    -6.787000000    -1.144000000
C     2.334000000    -5.581000000    -1.737000000
C     3.666000000    -5.259000000    -2.040000000
H     4.508000000    -5.800000000    -1.617000000
C     3.921000000    -4.115000000    -2.790000000
O     5.195000000    -3.780000000    -3.194000000
C     5.638000000    -2.555000000    -3.562000000
C     5.786000000    -1.576000000    -2.590000000
H     5.363000000    -1.838000000    -1.624000000
C     6.192000000    -2.359000000    -4.822000000
H     6.279000000    -3.140000000    -5.574000000
C     6.746000000    -1.117000000    -5.134000000
H     7.119000000    -0.943000000    -6.139000000
C     6.779000000    -0.069000000    -4.192000000
H     7.237000000     0.882000000    -4.449000000
C     6.299000000    -0.300000000    -2.929000000
O     6.527000000     0.577000000    -1.848000000
C     5.496000000     1.339000000    -1.304000000
C     5.659000000     1.765000000    -0.018000000
H     6.518000000     1.402000000     0.540000000
C     4.725000000     2.588000000     0.606000000
O     4.956000000     2.910000000     1.940000000
C     4.409000000     4.049000000     2.556000000
C     5.031000000     5.252000000     2.307000000
H     5.894000000     5.315000000     1.649000000
C     4.452000000     6.427000000     2.831000000
H     4.873000000     7.349000000     2.440000000
C     3.425000000     6.396000000     3.751000000
H     2.977000000     7.291000000     4.175000000
C     2.808000000     5.161000000     4.057000000
C     3.285000000     3.972000000     3.430000000
H     2.940000000     2.962000000     3.635000000
O     6.997000000    -3.228000000     1.548000000
H     6.084000000    -2.954000000     1.632000000
H     7.295000000    -3.348000000     2.450000000
O     3.893000000    -4.978000000     1.415000000
H     4.762000000    -5.190000000     1.073000000
H     3.977000000    -4.081000000     1.739000000
O     6.045000000    -0.605000000     2.998000000
H     5.338000000    -1.066000000     2.545000000
H     6.402000000    -1.253000000     3.605000000
O     4.615000000     1.151000000     4.324000000
H     5.093000000     1.977000000     4.399000000
H     5.229000000     0.557000000     3.892000000
O     7.007000000    -2.773000000     5.026000000
H     6.115000000    -2.893000000     5.352000000
H     7.387000000    -2.111000000     5.604000000
O     6.711000000    -6.129000000     3.350000000
H     6.976000000    -6.353000000     2.458000000
H     7.527000000    -6.129000000     3.850000000
O     6.458000000    -5.814000000     0.404000000
H     7.059000000    -6.343000000    -0.121000000
H     6.946000000    -5.012000000     0.591000000
O     1.581000000     0.779000000     8.334000000
H     2.399000000     1.276000000     8.343000000
H     1.557000000     0.373000000     7.468000000
O     4.613000000    -7.666000000     5.158000000
H     3.861000000    -7.258000000     4.729000000
H     5.373000000    -7.322000000     4.688000000
O     2.574000000    -5.987000000     3.795000000
H     2.920000000    -5.663000000     2.964000000
H     2.421000000    -5.199000000     4.315000000
O     7.592000000     2.026000000     3.644000000
H     7.148000000     2.143000000     2.804000000
H     7.509000000     1.091000000     3.831000000
O     1.725000000     1.585000000     1.927000000
H     1.134000000     0.845000000     2.064000000
H     2.250000000     1.336000000     1.167000000
O     2.643000000    -0.174000000     5.784000000
H     3.428000000     0.146000000     5.339000000
H     2.023000000    -0.352000000     5.077000000
O     4.979000000    -5.318000000     7.224000000
H     4.827000000    -4.701000000     6.508000000
H     4.880000000    -6.181000000     6.821000000
O     4.271000000    -2.706000000     5.891000000
H     3.723000000    -2.850000000     5.119000000
H     4.142000000    -1.783000000     6.107000000
O    -0.003000000    -5.916000000     6.594000000
H     0.386000000    -5.125000000     6.221000000
H     0.530000000    -6.103000000     7.367000000
O     1.082000000    -3.637000000     5.884000000
H     1.430000000    -3.360000000     5.036000000
H     1.656000000    -3.220000000     6.526000000
O     6.153000000    -2.656000000     7.999000000
H     5.707000000    -3.333000000     7.489000000
H     7.038000000    -2.998000000     8.128000000
O     3.890000000    -7.832000000     1.601000000
H     4.677000000    -8.291000000     1.307000000
H     4.158000000    -6.915000000     1.666000000
