201
-1235.65651
C    -1.601000000    -4.673000000     1.715000000
H    -1.751000000    -4.953000000     0.675000000
C    -2.318000000    -3.591000000     2.236000000
C    -2.091000000    -3.152000000     3.552000000
H    -2.665000000    -2.331000000     3.973000000
C    -3.067000000    -2.722000000     1.181000000
O    -3.712000000    -3.423000000     0.124000000
H    -2.412000000    -1.974000000     0.711000000
O    -4.068000000    -2.005000000     1.918000000
C    -4.296000000    -0.667000000     1.588000000
C    -3.875000000     0.312000000     2.442000000
H    -3.478000000     0.029000000     3.413000000
C    -3.884000000     1.661000000     2.067000000
O    -3.273000000     2.475000000     2.953000000
C    -4.409000000     2.070000000     0.834000000
C    -4.316000000     3.475000000     0.411000000
H    -5.033000000     3.624000000    -0.399000000
C    -2.949000000     3.910000000    -0.177000000
C    -2.801000000     3.761000000    -1.552000000
H    -3.619000000     3.578000000    -2.243000000
H    -4.674000000     4.106000000     1.227000000
C    -4.854000000     1.094000000    -0.051000000
H    -5.156000000     1.415000000    -1.045000000
C    -4.841000000    -0.239000000     0.316000000
C    -5.403000000    -1.225000000    -0.718000000
H    -6.118000000    -0.747000000    -1.390000000
H    -5.923000000    -1.952000000    -0.090000000
C    -4.378000000    -1.862000000    -1.629000000
C    -4.141000000    -1.273000000    -2.869000000
H    -4.707000000    -0.376000000    -3.106000000
C    -3.637000000    -2.936000000    -1.171000000
C    -2.534000000    -3.319000000    -1.936000000
H    -1.927000000    -4.136000000    -1.556000000
C    -2.262000000    -2.652000000    -3.173000000
O    -1.137000000    -3.023000000    -3.886000000
C     0.115000000    -2.303000000    -3.747000000
C     1.382000000    -3.104000000    -3.510000000
C     2.655000000    -2.467000000    -3.741000000
H     2.818000000    -1.452000000    -4.095000000
C     1.390000000    -4.411000000    -3.009000000
H     0.473000000    -4.892000000    -2.679000000
O     0.327000000    -1.392000000    -4.876000000
H     0.023000000    -1.659000000    -2.861000000
C    -3.035000000    -1.611000000    -3.658000000
C    -2.604000000    -0.785000000    -4.895000000
H    -3.505000000    -0.239000000    -5.182000000
H    -2.414000000    -1.510000000    -5.689000000
C    -1.498000000     0.210000000    -4.663000000
C    -1.873000000     1.473000000    -4.311000000
H    -2.920000000     1.764000000    -4.280000000
C    -0.150000000    -0.165000000    -4.662000000
C     0.763000000     0.777000000    -4.394000000
H     1.810000000     0.492000000    -4.330000000
C     0.435000000     2.144000000    -4.197000000
O     1.401000000     2.992000000    -3.700000000
C     1.432000000     3.322000000    -2.307000000
C     2.941000000     3.392000000    -1.855000000
C     3.962000000     2.536000000    -2.322000000
H     3.799000000     1.774000000    -3.080000000
C     3.319000000     4.308000000    -0.891000000
H     2.669000000     5.080000000    -0.489000000
O     0.707000000     4.584000000    -1.921000000
H     0.846000000     2.599000000    -1.721000000
C    -0.912000000     2.455000000    -4.131000000
C    -1.530000000     3.780000000    -3.686000000
H    -2.492000000     3.995000000    -4.156000000
H    -0.892000000     4.588000000    -4.052000000
C    -1.568000000     3.980000000    -2.149000000
C    -0.524000000     4.482000000    -1.385000000
C    -0.638000000     4.598000000    -0.001000000
H     0.185000000     5.015000000     0.573000000
C    -1.840000000     4.261000000     0.636000000
O    -1.838000000     4.126000000     2.031000000
C    -1.879000000     2.746000000     2.608000000
H    -1.675000000     2.035000000     1.794000000
C    -0.929000000     2.610000000     3.777000000
C    -1.221000000     1.907000000     4.906000000
H    -2.239000000     1.548000000     5.032000000
C     0.282000000     3.247000000     3.701000000
H     0.602000000     3.737000000     2.786000000
C     1.311000000     3.108000000     4.659000000
O     2.568000000     3.657000000     4.419000000
C     0.992000000     2.370000000     5.814000000
H     1.692000000     2.189000000     6.626000000
C    -0.227000000     1.739000000     5.871000000
O    -0.466000000     1.062000000     7.038000000
C    -1.134000000    -0.131000000     6.984000000
C    -0.692000000    -1.414000000     6.515000000
H     0.319000000    -1.579000000     6.153000000
C    -2.420000000    -0.033000000     7.551000000
H    -2.802000000     0.897000000     7.963000000
C    -3.238000000    -1.155000000     7.551000000
H    -4.233000000    -1.060000000     7.979000000
C    -2.826000000    -2.306000000     6.955000000
H    -3.410000000    -3.222000000     6.985000000
C    -1.543000000    -2.447000000     6.445000000
O    -1.077000000    -3.608000000     5.745000000
C    -1.303000000    -3.887000000     4.422000000
C    -0.651000000    -5.047000000     3.890000000
H    -0.029000000    -5.648000000     4.548000000
C    -0.729000000    -5.414000000     2.524000000
O     0.118000000    -6.476000000     2.191000000
C     0.250000000    -6.996000000     0.935000000
C     1.425000000    -6.502000000     0.253000000
H     2.156000000    -5.906000000     0.792000000
C    -0.732000000    -7.730000000     0.309000000
H    -1.581000000    -8.158000000     0.836000000
C    -0.566000000    -7.952000000    -1.089000000
H    -1.275000000    -8.544000000    -1.664000000
C     0.566000000    -7.593000000    -1.777000000
H     0.559000000    -7.594000000    -2.864000000
C     1.523000000    -6.753000000    -1.164000000
O     2.602000000    -6.277000000    -1.957000000
C     2.531000000    -5.041000000    -2.537000000
C     3.796000000    -4.415000000    -2.736000000
H     4.731000000    -4.860000000    -2.405000000
C     3.787000000    -3.155000000    -3.321000000
O     4.999000000    -2.492000000    -3.226000000
C     5.305000000    -1.323000000    -3.788000000
C     5.559000000    -0.204000000    -2.934000000
H     5.201000000    -0.230000000    -1.908000000
C     5.719000000    -1.235000000    -5.103000000
H     5.662000000    -2.131000000    -5.717000000
C     6.407000000    -0.128000000    -5.528000000
H     6.897000000    -0.174000000    -6.497000000
C     6.617000000     0.984000000    -4.663000000
H     7.140000000     1.808000000    -5.142000000
C     6.235000000     0.938000000    -3.360000000
O     6.353000000     1.990000000    -2.459000000
C     5.314000000     2.671000000    -1.933000000
C     5.657000000     3.550000000    -0.880000000
H     6.666000000     3.886000000    -0.659000000
C     4.659000000     4.361000000    -0.496000000
O     4.922000000     5.303000000     0.489000000
C     4.129000000     5.530000000     1.629000000
C     3.693000000     6.783000000     1.932000000
H     3.966000000     7.560000000     1.223000000
C     2.872000000     6.990000000     3.057000000
H     2.417000000     7.963000000     3.223000000
C     2.518000000     5.940000000     3.908000000
H     1.787000000     6.146000000     4.686000000
C     2.837000000     4.671000000     3.529000000
C     3.641000000     4.429000000     2.418000000
H     3.986000000     3.412000000     2.250000000
O     5.650000000    -6.254000000     2.911000000
H     5.343000000    -6.443000000     2.024000000
H     6.500000000    -6.691000000     2.968000000
O     1.688000000    -0.158000000     2.820000000
H     1.558000000    -1.050000000     2.497000000
H     1.598000000     0.394000000     2.044000000
O     7.009000000    -3.591000000     1.632000000
H     6.299000000    -3.141000000     1.175000000
H     6.897000000    -4.513000000     1.401000000
O     8.991000000    -4.662000000    -2.297000000
H     8.431000000    -4.025000000    -1.854000000
H     9.261000000    -5.266000000    -1.606000000
O     4.753000000    -6.233000000     0.462000000
H     5.155000000    -6.622000000    -0.314000000
H     4.603000000    -5.318000000     0.221000000
O     7.438000000    -2.804000000    -1.011000000
H     6.531000000    -2.521000000    -0.893000000
H     7.862000000    -2.602000000    -0.177000000
O     7.604000000     1.232000000     1.134000000
H     6.880000000     0.834000000     1.617000000
H     7.579000000     2.156000000     1.382000000
O     5.692000000    -0.469000000     2.308000000
H     5.365000000    -0.702000000     1.439000000
H     5.374000000    -1.168000000     2.879000000
O     9.123000000    -0.895000000    -2.728000000
H     8.281000000    -1.011000000    -2.288000000
H     9.089000000    -1.496000000    -3.472000000
O     4.741000000    -2.502000000     4.179000000
H     5.244000000    -2.987000000     4.833000000
H     4.451000000    -3.170000000     3.557000000
O     3.665000000    -4.462000000     2.724000000
H     4.383000000    -5.092000000     2.788000000
H     3.615000000    -4.249000000     1.792000000
O     3.348000000    -8.207000000     2.173000000
H     3.592000000    -7.705000000     1.395000000
H     3.001000000    -7.553000000     2.780000000
O     2.718000000    -6.420000000     4.369000000
H     2.828000000    -5.614000000     3.864000000
H     2.536000000    -6.121000000     5.260000000
O     3.496000000     0.463000000     4.764000000
H     3.213000000    -0.400000000     5.065000000
H     2.906000000     0.670000000     4.039000000
O     5.895000000     1.913000000     3.956000000
H     5.928000000     0.996000000     3.685000000
H     5.014000000     2.026000000     4.314000000
O     2.728000000    -1.857000000     6.244000000
H     2.414000000    -2.537000000     6.841000000
H     3.247000000    -2.330000000     5.594000000
O     8.840000000    -1.373000000     0.987000000
H     8.445000000    -0.515000000     0.830000000
H     8.683000000    -1.543000000     1.916000000
O     8.221000000    -1.950000000     3.683000000
H     7.545000000    -2.445000000     3.219000000
H     8.909000000    -2.592000000     3.859000000
O     5.552000000    -5.234000000    -4.918000000
H     4.782000000    -4.702000000    -4.718000000
H     5.346000000    -5.648000000    -5.756000000
