201
-1205.09375
C    -1.577000000    -4.623000000     0.341000000
H    -1.712000000    -4.384000000    -0.711000000
C    -2.300000000    -3.889000000     1.292000000
C    -1.966000000    -4.097000000     2.617000000
H    -2.562000000    -3.706000000     3.438000000
C    -3.199000000    -2.708000000     0.940000000
O    -3.902000000    -2.984000000    -0.293000000
H    -2.387000000    -2.030000000     0.636000000
O    -4.017000000    -2.201000000     2.030000000
C    -4.177000000    -0.870000000     2.202000000
C    -3.423000000    -0.329000000     3.228000000
H    -2.963000000    -0.965000000     3.980000000
C    -3.152000000     1.067000000     3.337000000
O    -2.267000000     1.479000000     4.270000000
C    -3.848000000     1.947000000     2.476000000
C    -3.576000000     3.458000000     2.650000000
H    -4.487000000     3.936000000     2.285000000
C    -2.329000000     3.837000000     1.874000000
C    -2.394000000     4.164000000     0.506000000
H    -3.379000000     4.068000000     0.057000000
H    -3.586000000     3.731000000     3.707000000
C    -4.629000000     1.473000000     1.471000000
H    -5.008000000     2.151000000     0.710000000
C    -4.762000000     0.054000000     1.327000000
C    -5.556000000    -0.382000000     0.147000000
H    -6.280000000     0.433000000     0.082000000
H    -6.095000000    -1.307000000     0.366000000
C    -4.635000000    -0.704000000    -0.950000000
C    -4.454000000     0.289000000    -1.967000000
H    -5.010000000     1.222000000    -1.932000000
C    -3.982000000    -1.925000000    -1.228000000
C    -3.354000000    -2.183000000    -2.454000000
H    -2.888000000    -3.121000000    -2.742000000
C    -3.062000000    -1.079000000    -3.272000000
O    -2.090000000    -1.381000000    -4.219000000
C    -0.862000000    -0.614000000    -4.286000000
C     0.251000000    -1.503000000    -4.735000000
C     1.467000000    -0.980000000    -5.097000000
H     1.610000000     0.095000000    -5.185000000
C     0.141000000    -2.906000000    -4.631000000
H    -0.758000000    -3.398000000    -4.267000000
O    -0.957000000     0.632000000    -4.950000000
H    -0.648000000    -0.260000000    -3.266000000
C    -3.734000000     0.135000000    -3.138000000
C    -3.563000000     1.241000000    -4.165000000
H    -4.553000000     1.701000000    -4.186000000
H    -3.459000000     0.686000000    -5.100000000
C    -2.368000000     2.036000000    -3.793000000
C    -2.536000000     3.178000000    -3.020000000
H    -3.495000000     3.532000000    -2.649000000
C    -1.097000000     1.722000000    -4.200000000
C     0.010000000     2.445000000    -3.917000000
H     1.006000000     2.192000000    -4.272000000
C    -0.125000000     3.530000000    -3.100000000
O     1.046000000     4.097000000    -2.604000000
C     1.461000000     3.753000000    -1.237000000
C     2.962000000     3.614000000    -1.168000000
C     3.587000000     2.949000000    -2.197000000
H     2.897000000     2.690000000    -2.997000000
C     3.668000000     4.002000000    -0.031000000
H     3.160000000     4.502000000     0.789000000
O     1.093000000     4.728000000    -0.339000000
H     1.058000000     2.765000000    -0.969000000
C    -1.419000000     3.885000000    -2.618000000
C    -1.529000000     5.001000000    -1.663000000
H    -2.482000000     5.531000000    -1.715000000
H    -0.726000000     5.657000000    -2.006000000
C    -1.302000000     4.610000000    -0.208000000
C    -0.038000000     4.544000000     0.375000000
C     0.062000000     4.138000000     1.701000000
H     1.034000000     4.019000000     2.173000000
C    -1.058000000     3.804000000     2.457000000
O    -0.883000000     3.292000000     3.697000000
C    -0.970000000     1.827000000     3.795000000
H    -0.850000000     1.354000000     2.809000000
C     0.064000000     1.157000000     4.713000000
C    -0.220000000     0.161000000     5.629000000
H    -1.256000000    -0.170000000     5.612000000
C     1.364000000     1.627000000     4.528000000
H     1.579000000     2.325000000     3.723000000
C     2.413000000     0.946000000     5.218000000
O     3.785000000     1.356000000     4.957000000
C     2.064000000    -0.144000000     6.077000000
H     2.876000000    -0.649000000     6.594000000
C     0.745000000    -0.488000000     6.388000000
O     0.420000000    -1.625000000     7.115000000
C    -0.440000000    -2.632000000     6.728000000
C    -0.136000000    -3.467000000     5.681000000
H     0.632000000    -3.097000000     5.007000000
C    -1.507000000    -2.975000000     7.528000000
H    -1.678000000    -2.329000000     8.385000000
C    -2.382000000    -4.024000000     7.221000000
H    -3.163000000    -4.146000000     7.968000000
C    -2.160000000    -4.859000000     6.113000000
H    -2.908000000    -5.625000000     5.932000000
C    -0.968000000    -4.609000000     5.348000000
O    -0.636000000    -5.400000000     4.294000000
C    -0.933000000    -5.016000000     3.008000000
C    -0.304000000    -5.693000000     1.994000000
H     0.423000000    -6.472000000     2.211000000
C    -0.529000000    -5.451000000     0.656000000
O     0.431000000    -5.963000000    -0.245000000
C     0.183000000    -6.322000000    -1.546000000
C     0.632000000    -5.528000000    -2.557000000
H     1.174000000    -4.606000000    -2.361000000
C    -0.617000000    -7.398000000    -1.932000000
H    -0.932000000    -8.041000000    -1.114000000
C    -0.757000000    -7.784000000    -3.242000000
H    -1.288000000    -8.692000000    -3.517000000
C    -0.227000000    -7.000000000    -4.206000000
H    -0.340000000    -7.278000000    -5.250000000
C     0.493000000    -5.920000000    -3.917000000
O     1.104000000    -5.169000000    -4.944000000
C     1.267000000    -3.702000000    -4.880000000
C     2.479000000    -3.161000000    -5.230000000
H     3.240000000    -3.915000000    -5.414000000
C     2.591000000    -1.786000000    -5.316000000
O     3.741000000    -1.209000000    -5.861000000
C     4.031000000     0.114000000    -5.757000000
C     4.469000000     0.536000000    -4.452000000
H     4.479000000    -0.162000000    -3.619000000
C     4.112000000     0.976000000    -6.869000000
H     3.876000000     0.705000000    -7.895000000
C     4.795000000     2.168000000    -6.744000000
H     4.979000000     2.809000000    -7.602000000
C     5.312000000     2.592000000    -5.496000000
H     5.748000000     3.582000000    -5.387000000
C     5.098000000     1.831000000    -4.349000000
O     5.707000000     2.162000000    -3.198000000
C     4.951000000     2.671000000    -2.175000000
C     5.589000000     3.015000000    -0.974000000
H     6.665000000     2.877000000    -0.917000000
C     4.972000000     3.576000000     0.108000000
O     5.673000000     3.702000000     1.301000000
C     5.167000000     3.697000000     2.607000000
C     5.171000000     4.850000000     3.436000000
H     5.693000000     5.702000000     3.007000000
C     4.707000000     4.844000000     4.754000000
H     4.738000000     5.779000000     5.306000000
C     4.166000000     3.665000000     5.246000000
H     3.934000000     3.615000000     6.306000000
C     4.226000000     2.569000000     4.431000000
C     4.697000000     2.547000000     3.118000000
H     4.656000000     1.672000000     2.473000000
O     1.758000000    -6.944000000     5.948000000
H     2.093000000    -6.212000000     5.431000000
H     1.723000000    -7.677000000     5.333000000
O     5.519000000    -5.799000000     0.849000000
H     5.874000000    -4.918000000     0.728000000
H     5.892000000    -6.308000000     0.129000000
O     6.310000000    -4.554000000     3.320000000
H     6.018000000    -5.073000000     2.571000000
H     5.641000000    -3.877000000     3.418000000
O     7.365000000    -1.929000000     4.012000000
H     7.830000000    -2.483000000     3.385000000
H     6.570000000    -1.660000000     3.552000000
O     8.788000000    -4.241000000     2.435000000
H     9.209000000    -5.100000000     2.388000000
H     7.863000000    -4.436000000     2.586000000
O    10.071000000    -0.967000000     3.189000000
H     9.485000000    -1.155000000     2.456000000
H     9.877000000    -0.059000000     3.424000000
O     6.669000000     0.228000000     0.923000000
H     6.200000000    -0.425000000     1.443000000
H     7.558000000    -0.118000000     0.850000000
O     5.219000000    -2.510000000     5.735000000
H     4.775000000    -2.481000000     4.887000000
H     6.120000000    -2.250000000     5.542000000
O     3.403000000    -6.602000000     2.334000000
H     4.128000000    -6.264000000     1.808000000
H     2.902000000    -7.149000000     1.730000000
O     8.295000000     1.292000000     3.685000000
H     7.339000000     1.229000000     3.675000000
H     8.510000000     1.523000000     4.589000000
O     3.061000000    -4.863000000     4.476000000
H     3.099000000    -5.632000000     3.907000000
H     3.535000000    -4.185000000     3.995000000
O     6.534000000    -3.251000000     0.517000000
H     6.921000000    -2.587000000    -0.054000000
H     6.003000000    -2.752000000     1.138000000
O     5.958000000    -5.251000000     6.026000000
H     5.850000000    -4.499000000     5.444000000
H     6.845000000    -5.565000000     5.850000000
O     8.820000000    -1.630000000     0.851000000
H     9.499000000    -1.643000000     0.177000000
H     8.423000000    -2.500000000     0.808000000
O     5.501000000    -3.951000000    -2.390000000
H     5.555000000    -3.029000000    -2.138000000
H     5.482000000    -4.426000000    -1.560000000
O     8.448000000    -1.902000000     6.388000000
H     8.085000000    -1.998000000     5.507000000
H     9.363000000    -1.660000000     6.244000000
O     3.249000000    -4.231000000     7.340000000
H     3.349000000    -4.587000000     6.457000000
H     2.923000000    -3.341000000     7.204000000
O     4.944000000    -1.500000000     8.266000000
H     5.370000000    -2.261000000     8.661000000
H     4.792000000    -1.756000000     7.357000000
O     6.730000000    -1.350000000    -1.671000000
H     6.930000000    -0.747000000    -0.955000000
H     7.585000000    -1.590000000    -2.027000000
