201
-1257.04547
C    -1.044000000    -5.086000000     0.302000000
H    -1.123000000    -5.068000000    -0.782000000
C    -1.940000000    -4.340000000     1.098000000
C    -2.030000000    -4.576000000     2.468000000
H    -2.756000000    -4.051000000     3.084000000
C    -2.770000000    -3.270000000     0.453000000
O    -3.351000000    -3.668000000    -0.852000000
H    -2.073000000    -2.425000000     0.355000000
O    -3.818000000    -2.931000000     1.319000000
C    -4.061000000    -1.522000000     1.412000000
C    -3.601000000    -0.891000000     2.565000000
H    -2.977000000    -1.470000000     3.242000000
C    -3.803000000     0.512000000     2.767000000
O    -2.895000000     0.947000000     3.769000000
C    -4.487000000     1.234000000     1.855000000
C    -4.555000000     2.742000000     1.939000000
H    -5.464000000     3.143000000     1.486000000
C    -3.320000000     3.408000000     1.297000000
C    -3.365000000     3.738000000    -0.009000000
H    -4.321000000     3.485000000    -0.461000000
H    -4.630000000     3.080000000     2.975000000
C    -4.987000000     0.593000000     0.708000000
H    -5.511000000     1.177000000    -0.044000000
C    -4.770000000    -0.805000000     0.493000000
C    -5.296000000    -1.465000000    -0.771000000
H    -6.164000000    -0.946000000    -1.182000000
H    -5.579000000    -2.464000000    -0.431000000
C    -4.300000000    -1.676000000    -1.859000000
C    -4.229000000    -0.669000000    -2.821000000
H    -4.974000000     0.116000000    -2.921000000
C    -3.374000000    -2.723000000    -1.887000000
C    -2.383000000    -2.807000000    -2.880000000
H    -1.739000000    -3.682000000    -2.838000000
C    -2.277000000    -1.799000000    -3.805000000
O    -1.142000000    -1.803000000    -4.605000000
C    -0.148000000    -0.907000000    -4.222000000
C     1.243000000    -1.535000000    -4.238000000
C     2.265000000    -0.742000000    -4.813000000
H     2.070000000     0.288000000    -5.096000000
C     1.446000000    -2.803000000    -3.767000000
H     0.695000000    -3.356000000    -3.208000000
O    -0.208000000     0.306000000    -5.089000000
H    -0.248000000    -0.558000000    -3.184000000
C    -3.136000000    -0.728000000    -3.764000000
C    -3.024000000     0.539000000    -4.691000000
H    -4.021000000     0.978000000    -4.763000000
H    -2.760000000     0.168000000    -5.683000000
C    -2.069000000     1.586000000    -4.265000000
C    -2.492000000     2.639000000    -3.473000000
H    -3.543000000     2.661000000    -3.193000000
C    -0.693000000     1.460000000    -4.542000000
C     0.210000000     2.319000000    -3.982000000
H     1.288000000     2.189000000    -4.030000000
C    -0.224000000     3.406000000    -3.226000000
O     0.683000000     4.118000000    -2.563000000
C     0.893000000     3.885000000    -1.155000000
C     2.364000000     3.847000000    -0.705000000
C     3.211000000     3.057000000    -1.447000000
H     2.867000000     2.597000000    -2.370000000
C     2.832000000     4.395000000     0.476000000
H     2.160000000     4.774000000     1.242000000
O     0.078000000     4.844000000    -0.465000000
H     0.425000000     2.905000000    -0.979000000
C    -1.620000000     3.579000000    -2.934000000
C    -2.201000000     4.678000000    -2.107000000
H    -3.225000000     4.887000000    -2.423000000
H    -1.575000000     5.567000000    -2.214000000
C    -2.254000000     4.279000000    -0.625000000
C    -1.116000000     4.462000000     0.103000000
C    -1.065000000     4.246000000     1.491000000
H    -0.170000000     4.421000000     2.084000000
C    -2.195000000     3.646000000     2.091000000
O    -2.025000000     3.096000000     3.306000000
C    -1.701000000     1.710000000     3.385000000
H    -1.518000000     1.381000000     2.352000000
C    -0.536000000     1.344000000     4.357000000
C    -0.469000000    -0.003000000     4.887000000
H    -1.298000000    -0.683000000     4.706000000
C     0.518000000     2.231000000     4.555000000
H     0.462000000     3.198000000     4.061000000
C     1.645000000     1.856000000     5.271000000
O     2.742000000     2.673000000     5.540000000
C     1.675000000     0.548000000     5.799000000
H     2.560000000     0.352000000     6.398000000
C     0.701000000    -0.383000000     5.545000000
O     0.827000000    -1.546000000     6.195000000
C    -0.053000000    -2.624000000     6.268000000
C    -0.219000000    -3.480000000     5.180000000
H     0.401000000    -3.461000000     4.288000000
C    -0.804000000    -2.718000000     7.403000000
H    -0.742000000    -1.909000000     8.127000000
C    -1.691000000    -3.777000000     7.536000000
H    -2.363000000    -3.867000000     8.386000000
C    -1.785000000    -4.728000000     6.537000000
H    -2.496000000    -5.530000000     6.719000000
C    -1.011000000    -4.658000000     5.358000000
O    -1.178000000    -5.690000000     4.439000000
C    -1.160000000    -5.499000000     3.080000000
C    -0.211000000    -6.248000000     2.288000000
H     0.487000000    -6.799000000     2.913000000
C    -0.103000000    -5.989000000     0.936000000
O     0.933000000    -6.604000000     0.201000000
C     0.899000000    -6.564000000    -1.183000000
C     1.788000000    -5.645000000    -1.738000000
H     2.446000000    -5.036000000    -1.123000000
C    -0.015000000    -7.237000000    -2.004000000
H    -0.914000000    -7.737000000    -1.653000000
C     0.208000000    -7.145000000    -3.388000000
H    -0.546000000    -7.551000000    -4.058000000
C     1.213000000    -6.411000000    -3.908000000
H     1.440000000    -6.370000000    -4.970000000
C     2.028000000    -5.604000000    -3.102000000
O     2.939000000    -4.760000000    -3.708000000
C     2.641000000    -3.427000000    -4.036000000
C     3.678000000    -2.724000000    -4.635000000
H     4.609000000    -3.234000000    -4.871000000
C     3.448000000    -1.430000000    -5.024000000
O     4.459000000    -0.767000000    -5.639000000
C     4.824000000     0.498000000    -5.186000000
C     4.864000000     0.715000000    -3.782000000
H     4.580000000    -0.045000000    -3.059000000
C     5.181000000     1.533000000    -6.081000000
H     5.407000000     1.236000000    -7.102000000
C     5.494000000     2.770000000    -5.522000000
H     5.886000000     3.570000000    -6.146000000
C     5.442000000     2.979000000    -4.138000000
H     5.666000000     3.959000000    -3.725000000
C     5.246000000     1.933000000    -3.288000000
O     5.351000000     2.196000000    -1.882000000
C     4.546000000     2.929000000    -1.098000000
C     5.058000000     3.644000000    -0.053000000
H     6.122000000     3.649000000     0.170000000
C     4.189000000     4.374000000     0.741000000
O     4.675000000     5.026000000     1.814000000
C     4.025000000     4.972000000     3.024000000
C     3.794000000     6.181000000     3.665000000
H     4.038000000     7.166000000     3.276000000
C     3.159000000     6.239000000     4.902000000
H     2.995000000     7.252000000     5.260000000
C     2.781000000     5.009000000     5.493000000
H     2.433000000     5.075000000     6.521000000
C     3.067000000     3.801000000     4.848000000
C     3.664000000     3.779000000     3.577000000
H     3.906000000     2.823000000     3.119000000
O     8.830000000     0.902000000    -1.902000000
H     7.970000000     0.845000000    -1.487000000
H     9.383000000     0.312000000    -1.390000000
O     9.514000000    -3.615000000     0.976000000
H    10.019000000    -4.409000000     1.149000000
H     8.637000000    -3.932000000     0.757000000
O     3.565000000    -4.356000000     1.147000000
H     3.792000000    -3.660000000     1.764000000
H     4.188000000    -4.250000000     0.427000000
O     7.248000000    -5.157000000    -0.403000000
H     6.610000000    -4.446000000    -0.463000000
H     7.417000000    -5.405000000    -1.312000000
O     7.005000000     0.293000000    -0.256000000
H     6.746000000     1.106000000     0.177000000
H     6.269000000    -0.302000000    -0.109000000
O     6.974000000    -2.250000000     2.390000000
H     7.286000000    -1.518000000     2.923000000
H     6.220000000    -1.897000000     1.917000000
O     8.054000000     2.497000000     1.211000000
H     8.716000000     1.845000000     1.440000000
H     8.530000000     3.153000000     0.702000000
O     6.897000000    -2.887000000    -2.731000000
H     7.626000000    -3.507000000    -2.735000000
H     6.835000000    -2.584000000    -3.637000000
O     3.353000000    -3.556000000     4.271000000
H     4.196000000    -3.944000000     4.033000000
H     3.171000000    -2.932000000     3.569000000
O     5.877000000    -4.616000000     3.759000000
H     5.921000000    -5.174000000     2.982000000
H     6.180000000    -3.760000000     3.457000000
O     7.236000000     0.492000000     3.494000000
H     6.298000000     0.301000000     3.519000000
H     7.286000000     1.447000000     3.465000000
O     3.383000000    -7.117000000     1.675000000
H     3.197000000    -6.228000000     1.373000000
H     3.036000000    -7.144000000     2.567000000
O     5.686000000     2.021000000     5.960000000
H     6.377000000     2.400000000     5.417000000
H     5.302000000     1.334000000     5.415000000
O     5.378000000    -3.157000000    -0.726000000
H     5.847000000    -2.880000000    -1.514000000
H     5.127000000    -2.339000000    -0.297000000
O     4.546000000     0.072000000     4.715000000
H     4.452000000    -0.691000000     5.284000000
H     4.297000000    -0.245000000     3.846000000
O     8.831000000    -4.174000000     3.946000000
H     8.500000000    -3.995000000     4.826000000
H     8.089000000    -3.995000000     3.369000000
O     9.338000000    -0.981000000     0.403000000
H     8.998000000    -1.849000000     0.620000000
H     8.560000000    -0.424000000     0.355000000
O     5.430000000    -5.493000000     6.342000000
H     5.747000000    -5.142000000     5.510000000
H     5.287000000    -6.424000000     6.170000000
O     3.993000000    -2.016000000     6.743000000
H     3.674000000    -2.596000000     6.051000000
H     3.389000000    -2.158000000     7.471000000
