201
-1245.88797
C    -0.336000000    -5.370000000    -0.721000000
H    -0.790000000    -5.278000000    -1.704000000
C    -0.891000000    -4.738000000     0.354000000
C    -0.428000000    -5.058000000     1.638000000
H    -0.936000000    -4.663000000     2.514000000
C    -1.985000000    -3.661000000     0.291000000
O    -2.784000000    -4.031000000    -0.726000000
H    -1.504000000    -2.679000000     0.171000000
O    -2.733000000    -3.716000000     1.474000000
C    -3.209000000    -2.497000000     1.895000000
C    -2.542000000    -1.869000000     2.941000000
H    -1.647000000    -2.374000000     3.295000000
C    -2.930000000    -0.669000000     3.458000000
O    -2.090000000    -0.219000000     4.378000000
C    -3.920000000     0.014000000     2.824000000
C    -4.322000000     1.473000000     3.388000000
H    -5.355000000     1.587000000     3.051000000
C    -3.407000000     2.497000000     2.695000000
C    -3.754000000     3.065000000     1.502000000
H    -4.751000000     2.952000000     1.084000000
H    -4.303000000     1.617000000     4.470000000
C    -4.595000000    -0.521000000     1.720000000
H    -5.368000000     0.107000000     1.283000000
C    -4.228000000    -1.769000000     1.206000000
C    -4.925000000    -2.328000000     0.073000000
H    -5.887000000    -1.835000000    -0.082000000
H    -5.129000000    -3.384000000     0.259000000
C    -4.178000000    -2.119000000    -1.167000000
C    -4.434000000    -1.026000000    -1.951000000
H    -5.183000000    -0.312000000    -1.617000000
C    -3.244000000    -3.037000000    -1.632000000
C    -2.537000000    -2.803000000    -2.821000000
H    -1.648000000    -3.394000000    -3.028000000
C    -2.683000000    -1.626000000    -3.550000000
O    -1.655000000    -1.327000000    -4.411000000
C    -0.704000000    -0.296000000    -4.017000000
C     0.716000000    -0.773000000    -4.364000000
C     1.730000000     0.219000000    -4.502000000
H     1.432000000     1.264000000    -4.501000000
C     1.150000000    -2.111000000    -4.353000000
H     0.420000000    -2.915000000    -4.294000000
O    -1.058000000     0.967000000    -4.590000000
H    -0.721000000    -0.116000000    -2.932000000
C    -3.702000000    -0.715000000    -3.083000000
C    -3.919000000     0.555000000    -3.856000000
H    -4.953000000     0.883000000    -3.726000000
H    -3.830000000     0.221000000    -4.892000000
C    -3.053000000     1.675000000    -3.357000000
C    -3.544000000     2.485000000    -2.240000000
H    -4.526000000     2.262000000    -1.831000000
C    -1.692000000     1.808000000    -3.708000000
C    -0.994000000     2.955000000    -3.190000000
H     0.019000000     3.107000000    -3.554000000
C    -1.548000000     3.814000000    -2.260000000
O    -0.740000000     4.793000000    -1.652000000
C    -0.083000000     4.337000000    -0.464000000
C     1.388000000     4.743000000    -0.493000000
C     2.042000000     4.883000000    -1.694000000
H     1.505000000     4.649000000    -2.610000000
C     2.150000000     4.697000000     0.718000000
H     1.670000000     4.403000000     1.647000000
O    -0.770000000     5.040000000     0.667000000
H    -0.125000000     3.244000000    -0.347000000
C    -2.820000000     3.551000000    -1.763000000
C    -3.357000000     4.473000000    -0.628000000
H    -4.440000000     4.360000000    -0.711000000
H    -3.068000000     5.525000000    -0.689000000
C    -2.888000000     3.952000000     0.748000000
C    -1.665000000     4.272000000     1.324000000
C    -1.248000000     3.534000000     2.486000000
H    -0.227000000     3.732000000     2.803000000
C    -2.095000000     2.721000000     3.227000000
O    -1.579000000     2.079000000     4.308000000
C    -1.125000000     0.752000000     4.057000000
H    -0.886000000     0.619000000     2.991000000
C     0.185000000     0.498000000     4.703000000
C     0.635000000    -0.820000000     4.744000000
H     0.099000000    -1.648000000     4.288000000
C     1.032000000     1.533000000     5.133000000
H     0.761000000     2.582000000     5.042000000
C     2.316000000     1.279000000     5.611000000
O     3.125000000     2.338000000     5.958000000
C     2.699000000    -0.061000000     5.736000000
H     3.557000000    -0.426000000     6.295000000
C     1.833000000    -1.068000000     5.335000000
O     2.281000000    -2.367000000     5.467000000
C     1.507000000    -3.522000000     5.362000000
C     1.698000000    -4.371000000     4.258000000
H     2.364000000    -4.053000000     3.459000000
C     0.458000000    -3.798000000     6.262000000
H     0.314000000    -3.065000000     7.051000000
C    -0.405000000    -4.935000000     6.084000000
H    -1.177000000    -5.149000000     6.818000000
C    -0.137000000    -5.777000000     5.017000000
H    -0.762000000    -6.638000000     4.797000000
C     0.953000000    -5.561000000     4.194000000
O     1.095000000    -6.340000000     3.007000000
C     0.656000000    -5.974000000     1.768000000
C     1.212000000    -6.591000000     0.668000000
H     2.095000000    -7.200000000     0.842000000
C     0.640000000    -6.324000000    -0.552000000
O     1.072000000    -7.076000000    -1.715000000
C     1.119000000    -6.494000000    -2.954000000
C     1.968000000    -5.398000000    -3.077000000
H     2.404000000    -5.044000000    -2.147000000
C     0.255000000    -6.874000000    -3.976000000
H    -0.585000000    -7.549000000    -3.834000000
C     0.293000000    -6.264000000    -5.247000000
H    -0.370000000    -6.479000000    -6.081000000
C     1.249000000    -5.290000000    -5.376000000
H     1.314000000    -4.680000000    -6.273000000
C     2.070000000    -4.831000000    -4.347000000
O     2.956000000    -3.771000000    -4.457000000
C     2.521000000    -2.459000000    -4.476000000
C     3.472000000    -1.435000000    -4.652000000
H     4.505000000    -1.760000000    -4.740000000
C     3.042000000    -0.091000000    -4.751000000
O     4.120000000     0.784000000    -4.828000000
C     3.925000000     2.120000000    -4.928000000
C     4.015000000     2.951000000    -3.842000000
H     4.306000000     2.589000000    -2.859000000
C     3.686000000     2.700000000    -6.224000000
H     3.427000000     2.056000000    -7.060000000
C     3.721000000     4.056000000    -6.364000000
H     3.581000000     4.454000000    -7.365000000
C     3.848000000     4.880000000    -5.219000000
H     3.879000000     5.956000000    -5.374000000
C     3.961000000     4.360000000    -3.953000000
O     4.212000000     5.218000000    -2.868000000
C     3.409000000     5.250000000    -1.713000000
C     4.160000000     5.218000000    -0.513000000
H     5.243000000     5.301000000    -0.549000000
C     3.526000000     4.852000000     0.678000000
O     4.317000000     4.482000000     1.781000000
C     3.840000000     4.623000000     3.057000000
C     3.536000000     5.857000000     3.600000000
H     3.647000000     6.694000000     2.916000000
C     3.069000000     5.905000000     4.924000000
H     2.733000000     6.860000000     5.320000000
C     2.997000000     4.745000000     5.723000000
H     2.632000000     4.866000000     6.740000000
C     3.353000000     3.475000000     5.185000000
C     3.842000000     3.492000000     3.844000000
H     4.197000000     2.584000000     3.365000000
O     6.761000000     0.256000000    -5.005000000
H     7.452000000     0.817000000    -5.360000000
H     6.197000000     0.854000000    -4.515000000
O     9.692000000     0.181000000    -2.465000000
H     8.846000000     0.576000000    -2.253000000
H     9.590000000    -0.133000000    -3.363000000
O    10.090000000    -2.992000000     3.222000000
H     9.663000000    -3.545000000     2.568000000
H     9.367000000    -2.575000000     3.692000000
O     8.168000000    -0.214000000     1.296000000
H     7.265000000    -0.053000000     1.023000000
H     8.090000000    -0.799000000     2.050000000
O     3.951000000    -4.790000000    -0.046000000
H     3.281000000    -4.283000000    -0.505000000
H     4.673000000    -4.853000000    -0.672000000
O     8.597000000    -5.235000000     1.669000000
H     7.961000000    -4.552000000     1.455000000
H     8.434000000    -5.924000000     1.025000000
O     7.106000000     1.593000000    -1.980000000
H     6.603000000     1.133000000    -1.308000000
H     7.878000000     1.920000000    -1.518000000
O     7.494000000    -3.017000000     0.366000000
H     7.128000000    -2.201000000     0.708000000
H     8.044000000    -2.742000000    -0.368000000
O     9.798000000     3.888000000     2.369000000
H    10.119000000     3.027000000     2.102000000
H     8.910000000     3.726000000     2.687000000
O     6.701000000     2.664000000     1.200000000
H     5.884000000     3.154000000     1.295000000
H     6.438000000     1.836000000     0.798000000
O     5.778000000    -4.522000000    -2.241000000
H     6.551000000    -5.056000000    -2.060000000
H     6.107000000    -3.797000000    -2.772000000
O    10.127000000    -1.490000000    -0.214000000
H     9.587000000    -1.044000000     0.438000000
H     9.917000000    -1.053000000    -1.039000000
O     4.560000000    -3.649000000     2.328000000
H     4.603000000    -4.211000000     1.554000000
H     4.743000000    -2.770000000     1.996000000
O     7.118000000     3.057000000     3.809000000
H     7.003000000     2.826000000     2.887000000
H     6.851000000     2.272000000     4.288000000
O     2.849000000    -2.548000000    -1.329000000
H     2.202000000    -1.845000000    -1.290000000
H     3.679000000    -2.101000000    -1.494000000
O     6.987000000    -1.752000000     3.243000000
H     6.668000000    -2.543000000     3.678000000
H     6.269000000    -1.489000000     2.667000000
O     7.306000000     0.376000000     4.979000000
H     7.261000000    -0.306000000     4.308000000
H     6.843000000     0.004000000     5.730000000
O    10.319000000     0.994000000     2.048000000
H     9.523000000     0.614000000     1.678000000
H    10.647000000     0.325000000     2.649000000
O     5.540000000    -3.512000000     4.761000000
H     5.004000000    -3.244000000     4.015000000
H     5.272000000    -2.929000000     5.471000000
