201
-1259.10161
C    -0.317000000    -4.939000000     0.612000000
H    -0.694000000    -4.779000000    -0.395000000
C    -1.107000000    -4.558000000     1.657000000
C    -0.740000000    -4.883000000     2.907000000
H    -1.297000000    -4.441000000     3.729000000
C    -2.226000000    -3.540000000     1.315000000
O    -3.056000000    -4.031000000     0.251000000
H    -1.715000000    -2.630000000     0.967000000
O    -2.988000000    -3.230000000     2.507000000
C    -3.408000000    -1.962000000     2.831000000
C    -2.746000000    -1.262000000     3.819000000
H    -1.939000000    -1.777000000     4.333000000
C    -2.900000000     0.140000000     3.883000000
O    -1.980000000     0.816000000     4.690000000
C    -3.820000000     0.827000000     3.108000000
C    -3.984000000     2.317000000     3.084000000
H    -5.005000000     2.637000000     2.867000000
C    -3.083000000     3.023000000     2.167000000
C    -3.478000000     3.436000000     0.935000000
H    -4.447000000     3.155000000     0.532000000
H    -3.784000000     2.743000000     4.070000000
C    -4.664000000     0.079000000     2.306000000
H    -5.445000000     0.556000000     1.720000000
C    -4.439000000    -1.320000000     2.075000000
C    -5.193000000    -2.043000000     0.893000000
H    -6.169000000    -1.603000000     0.678000000
H    -5.459000000    -3.065000000     1.172000000
C    -4.375000000    -2.037000000    -0.419000000
C    -4.642000000    -1.093000000    -1.423000000
H    -5.403000000    -0.333000000    -1.266000000
C    -3.385000000    -3.002000000    -0.687000000
C    -2.490000000    -2.894000000    -1.811000000
H    -1.665000000    -3.580000000    -1.987000000
C    -2.843000000    -1.910000000    -2.741000000
O    -1.989000000    -1.904000000    -3.824000000
C    -0.962000000    -0.906000000    -3.900000000
C     0.417000000    -1.371000000    -4.484000000
C     1.100000000    -0.640000000    -5.371000000
H     0.711000000     0.330000000    -5.671000000
C     0.892000000    -2.674000000    -4.187000000
H     0.240000000    -3.189000000    -3.486000000
O    -1.539000000     0.071000000    -4.792000000
H    -0.795000000    -0.464000000    -2.907000000
C    -3.915000000    -1.033000000    -2.586000000
C    -4.245000000     0.049000000    -3.588000000
H    -5.238000000     0.497000000    -3.513000000
H    -4.270000000    -0.420000000    -4.574000000
C    -3.268000000     1.209000000    -3.544000000
C    -3.635000000     2.348000000    -2.704000000
H    -4.663000000     2.357000000    -2.350000000
C    -2.020000000     1.180000000    -4.139000000
C    -1.083000000     2.143000000    -3.870000000
H    -0.111000000     2.089000000    -4.354000000
C    -1.385000000     3.194000000    -2.978000000
O    -0.463000000     4.036000000    -2.507000000
C     0.196000000     3.839000000    -1.297000000
C     1.744000000     3.888000000    -1.409000000
C     2.394000000     3.428000000    -2.582000000
H     1.819000000     2.935000000    -3.362000000
C     2.497000000     4.404000000    -0.379000000
H     2.088000000     4.767000000     0.560000000
O    -0.301000000     4.802000000    -0.296000000
H    -0.037000000     2.802000000    -1.013000000
C    -2.677000000     3.283000000    -2.366000000
C    -3.014000000     4.417000000    -1.333000000
H    -4.104000000     4.447000000    -1.387000000
H    -2.688000000     5.416000000    -1.631000000
C    -2.561000000     4.064000000     0.099000000
C    -1.254000000     4.318000000     0.549000000
C    -0.886000000     3.987000000     1.870000000
H     0.086000000     4.175000000     2.319000000
C    -1.777000000     3.280000000     2.631000000
O    -1.304000000     2.907000000     3.895000000
C    -0.962000000     1.538000000     4.025000000
H    -0.752000000     1.052000000     3.062000000
C     0.416000000     1.447000000     4.760000000
C     0.846000000     0.131000000     5.004000000
H     0.237000000    -0.740000000     4.779000000
C     1.405000000     2.487000000     4.789000000
H     1.208000000     3.413000000     4.254000000
C     2.671000000     2.225000000     5.209000000
O     3.664000000     3.217000000     5.096000000
C     3.024000000     0.917000000     5.574000000
H     4.051000000     0.744000000     5.886000000
C     2.138000000    -0.148000000     5.403000000
O     2.581000000    -1.385000000     5.747000000
C     1.805000000    -2.509000000     5.984000000
C     1.798000000    -3.569000000     5.083000000
H     2.350000000    -3.466000000     4.153000000
C     1.135000000    -2.576000000     7.202000000
H     1.163000000    -1.821000000     7.984000000
C     0.374000000    -3.694000000     7.483000000
H    -0.327000000    -3.683000000     8.313000000
C     0.295000000    -4.757000000     6.632000000
H    -0.341000000    -5.630000000     6.759000000
C     0.995000000    -4.721000000     5.416000000
O     0.950000000    -5.766000000     4.479000000
C     0.540000000    -5.457000000     3.161000000
C     1.322000000    -5.902000000     2.104000000
H     2.318000000    -6.261000000     2.352000000
C     0.854000000    -5.702000000     0.807000000
O     1.634000000    -6.130000000    -0.283000000
C     1.247000000    -6.143000000    -1.593000000
C     1.932000000    -5.341000000    -2.459000000
H     2.697000000    -4.658000000    -2.099000000
C     0.240000000    -6.932000000    -2.084000000
H    -0.355000000    -7.548000000    -1.416000000
C     0.022000000    -6.970000000    -3.483000000
H    -0.785000000    -7.565000000    -3.901000000
C     0.740000000    -6.173000000    -4.389000000
H     0.534000000    -6.144000000    -5.456000000
C     1.752000000    -5.365000000    -3.840000000
O     2.395000000    -4.518000000    -4.704000000
C     2.043000000    -3.180000000    -4.814000000
C     2.647000000    -2.451000000    -5.791000000
H     3.399000000    -3.010000000    -6.341000000
C     2.230000000    -1.139000000    -6.006000000
O     2.925000000    -0.375000000    -6.885000000
C     3.107000000     0.962000000    -6.546000000
C     3.900000000     1.189000000    -5.382000000
H     4.412000000     0.418000000    -4.812000000
C     2.505000000     1.962000000    -7.228000000
H     1.873000000     1.727000000    -8.080000000
C     2.657000000     3.282000000    -6.862000000
H     2.263000000     4.114000000    -7.441000000
C     3.440000000     3.525000000    -5.716000000
H     3.589000000     4.561000000    -5.421000000
C     3.940000000     2.470000000    -4.929000000
O     4.510000000     2.733000000    -3.728000000
C     3.799000000     3.324000000    -2.665000000
C     4.478000000     3.846000000    -1.592000000
H     5.564000000     3.804000000    -1.589000000
C     3.878000000     4.456000000    -0.483000000
O     4.683000000     4.677000000     0.590000000
C     4.186000000     4.937000000     1.868000000
C     3.908000000     6.306000000     2.222000000
H     4.186000000     7.020000000     1.451000000
C     3.353000000     6.475000000     3.438000000
H     3.049000000     7.449000000     3.811000000
C     3.298000000     5.451000000     4.395000000
H     2.921000000     5.715000000     5.380000000
C     3.739000000     4.186000000     4.133000000
C     4.106000000     3.882000000     2.784000000
H     4.433000000     2.897000000     2.460000000
O     7.816000000    -5.512000000    -3.437000000
H     8.008000000    -5.834000000    -4.318000000
H     7.718000000    -4.566000000    -3.544000000
O     5.628000000    -4.326000000     5.668000000
H     5.975000000    -3.458000000     5.461000000
H     5.333000000    -4.673000000     4.826000000
O     7.332000000    -0.681000000     0.537000000
H     6.583000000    -0.951000000     0.005000000
H     7.295000000     0.275000000     0.535000000
O     6.825000000    -4.058000000    -0.825000000
H     7.232000000    -3.638000000    -1.583000000
H     6.242000000    -3.390000000    -0.466000000
O     6.740000000    -0.043000000    -2.496000000
H     6.058000000    -0.601000000    -2.124000000
H     7.134000000     0.391000000    -1.739000000
O     5.278000000    -6.128000000    -1.491000000
H     5.037000000    -5.777000000    -0.634000000
H     6.020000000    -5.591000000    -1.770000000
O     7.088000000     1.949000000     0.304000000
H     7.293000000     2.854000000     0.541000000
H     6.145000000     1.872000000     0.450000000
O     4.633000000     1.020000000     0.859000000
H     4.711000000     0.441000000     1.617000000
H     4.244000000     0.472000000     0.178000000
O     6.070000000    -6.980000000     2.720000000
H     5.733000000    -7.206000000     3.587000000
H     5.837000000    -7.728000000     2.171000000
O     4.491000000    -7.052000000    -3.814000000
H     5.078000000    -6.648000000    -3.174000000
H     3.612000000    -6.844000000    -3.498000000
O     5.768000000    -0.573000000     3.113000000
H     5.074000000    -1.215000000     3.262000000
H     6.235000000    -0.899000000     2.344000000
O     8.065000000    -5.185000000     1.480000000
H     7.817000000    -4.868000000     0.612000000
H     7.392000000    -5.829000000     1.701000000
O     8.523000000    -2.761000000    -2.642000000
H     9.475000000    -2.788000000    -2.546000000
H     8.337000000    -1.869000000    -2.935000000
O     4.464000000    -4.415000000     2.934000000
H     4.965000000    -5.117000000     2.520000000
H     4.409000000    -3.732000000     2.265000000
O     7.463000000    -2.315000000     5.134000000
H     7.151000000    -1.513000000     4.716000000
H     8.412000000    -2.206000000     5.184000000
O    10.044000000    -0.822000000     0.267000000
H    10.559000000    -1.532000000    -0.117000000
H     9.144000000    -1.149000000     0.262000000
O     7.381000000     1.846000000    -4.404000000
H     7.579000000     1.073000000    -3.875000000
H     6.550000000     2.169000000    -4.055000000
O     6.396000000     1.262000000     5.109000000
H     5.988000000     0.706000000     4.446000000
H     6.858000000     1.933000000     4.608000000
O     7.406000000    -0.996000000    -5.406000000
H     7.555000000    -0.262000000    -4.810000000
H     6.932000000    -0.614000000    -6.144000000
