201
-1240.30459
C    -5.203000000     1.523000000    -1.664000000
H    -4.615000000     2.081000000    -2.389000000
C    -5.018000000     1.530000000    -0.280000000
C    -5.799000000     0.623000000     0.502000000
H    -5.567000000     0.578000000     1.563000000
C    -3.871000000     2.334000000     0.286000000
O    -3.535000000     3.406000000    -0.644000000
H    -3.014000000     1.666000000     0.456000000
O    -4.175000000     2.840000000     1.637000000
C    -3.102000000     2.922000000     2.488000000
C    -2.855000000     1.838000000     3.271000000
H    -3.580000000     1.030000000     3.225000000
C    -1.689000000     1.696000000     3.990000000
O    -1.534000000     0.549000000     4.631000000
C    -0.816000000     2.762000000     4.066000000
C     0.444000000     2.638000000     4.892000000
H     0.856000000     3.618000000     5.141000000
C     1.540000000     1.954000000     4.161000000
C     2.505000000     2.772000000     3.503000000
H     2.500000000     3.856000000     3.581000000
H     0.302000000     2.162000000     5.864000000
C    -1.066000000     3.899000000     3.311000000
H    -0.259000000     4.627000000     3.297000000
C    -2.185000000     4.006000000     2.481000000
C    -2.141000000     5.048000000     1.341000000
H    -1.645000000     5.977000000     1.632000000
H    -3.148000000     5.317000000     1.016000000
C    -1.529000000     4.482000000     0.053000000
C    -0.205000000     4.804000000    -0.235000000
H     0.331000000     5.384000000     0.512000000
C    -2.225000000     3.690000000    -0.808000000
C    -1.687000000     3.362000000    -2.049000000
H    -2.206000000     2.878000000    -2.873000000
C    -0.388000000     3.756000000    -2.394000000
O     0.099000000     3.110000000    -3.553000000
C     1.096000000     2.049000000    -3.325000000
C     0.756000000     0.943000000    -4.295000000
C     1.817000000     0.245000000    -4.914000000
H     2.814000000     0.674000000    -4.962000000
C    -0.513000000     0.502000000    -4.470000000
H    -1.380000000     0.971000000    -4.011000000
O     2.418000000     2.579000000    -3.343000000
H     0.930000000     1.553000000    -2.357000000
C     0.319000000     4.504000000    -1.450000000
C     1.751000000     4.996000000    -1.703000000
H     1.988000000     5.967000000    -1.264000000
H     1.922000000     5.219000000    -2.758000000
C     2.753000000     3.869000000    -1.271000000
C     3.242000000     3.892000000     0.013000000
H     3.016000000     4.730000000     0.667000000
C     3.014000000     2.795000000    -2.124000000
C     3.929000000     1.825000000    -1.778000000
H     4.284000000     1.013000000    -2.408000000
C     4.464000000     1.880000000    -0.465000000
O     5.171000000     0.758000000    -0.045000000
C     4.364000000    -0.171000000     0.568000000
C     4.616000000    -1.645000000     0.074000000
C     5.004000000    -1.927000000    -1.219000000
H     5.279000000    -1.112000000    -1.883000000
C     4.291000000    -2.747000000     0.905000000
H     3.939000000    -2.628000000     1.926000000
O     4.473000000    -0.008000000     1.985000000
H     3.304000000     0.018000000     0.342000000
C     4.068000000     2.887000000     0.443000000
C     4.502000000     2.923000000     1.897000000
H     4.512000000     3.942000000     2.289000000
H     5.483000000     2.443000000     1.909000000
C     3.551000000     2.145000000     2.777000000
C     3.586000000     0.710000000     2.757000000
C     2.650000000    -0.074000000     3.493000000
H     2.673000000    -1.159000000     3.539000000
C     1.591000000     0.533000000     4.099000000
O     0.716000000    -0.279000000     4.732000000
C    -0.573000000    -0.442000000     4.188000000
H    -0.448000000    -0.293000000     3.105000000
C    -1.064000000    -1.886000000     4.258000000
C    -2.377000000    -2.187000000     3.945000000
H    -3.057000000    -1.371000000     3.714000000
C    -0.198000000    -2.959000000     4.416000000
H     0.842000000    -2.733000000     4.637000000
C    -0.552000000    -4.333000000     4.218000000
O     0.293000000    -5.462000000     4.415000000
C    -1.857000000    -4.558000000     3.912000000
H    -2.257000000    -5.568000000     3.892000000
C    -2.774000000    -3.501000000     3.827000000
O    -3.971000000    -3.835000000     3.241000000
C    -4.996000000    -2.953000000     3.167000000
C    -5.470000000    -2.475000000     1.942000000
H    -5.161000000    -2.912000000     0.996000000
C    -5.574000000    -2.581000000     4.407000000
H    -5.271000000    -3.036000000     5.347000000
C    -6.588000000    -1.617000000     4.348000000
H    -6.935000000    -1.212000000     5.295000000
C    -7.067000000    -1.146000000     3.093000000
H    -7.934000000    -0.492000000     3.143000000
C    -6.647000000    -1.655000000     1.880000000
O    -7.184000000    -1.319000000     0.666000000
C    -6.555000000    -0.378000000    -0.136000000
C    -6.717000000    -0.375000000    -1.474000000
H    -7.278000000    -1.143000000    -2.001000000
C    -6.072000000     0.556000000    -2.299000000
O    -6.303000000     0.389000000    -3.658000000
C    -5.305000000     0.561000000    -4.619000000
C    -4.235000000    -0.346000000    -4.595000000
H    -4.244000000    -1.197000000    -3.918000000
C    -5.231000000     1.694000000    -5.440000000
H    -6.004000000     2.459000000    -5.420000000
C    -4.068000000     1.838000000    -6.322000000
H    -3.941000000     2.698000000    -6.974000000
C    -3.025000000     0.923000000    -6.236000000
H    -2.173000000     1.050000000    -6.898000000
C    -3.149000000    -0.194000000    -5.450000000
O    -2.121000000    -1.099000000    -5.353000000
C    -0.845000000    -0.643000000    -5.197000000
C     0.180000000    -1.396000000    -5.632000000
H    -0.138000000    -2.336000000    -6.077000000
C     1.494000000    -0.927000000    -5.583000000
O     2.473000000    -1.732000000    -6.205000000
C     3.749000000    -1.898000000    -5.682000000
C     3.966000000    -2.543000000    -4.479000000
H     3.167000000    -2.965000000    -3.875000000
C     4.797000000    -1.523000000    -6.480000000
H     4.642000000    -1.157000000    -7.491000000
C     6.113000000    -1.609000000    -6.025000000
H     6.953000000    -1.246000000    -6.612000000
C     6.389000000    -2.243000000    -4.807000000
H     7.437000000    -2.454000000    -4.609000000
C     5.287000000    -2.657000000    -4.060000000
O     5.535000000    -3.465000000    -2.957000000
C     4.992000000    -3.207000000    -1.713000000
C     4.628000000    -4.256000000    -0.922000000
H     4.444000000    -5.240000000    -1.344000000
C     4.315000000    -4.000000000     0.416000000
O     3.826000000    -5.062000000     1.070000000
C     3.395000000    -5.134000000     2.369000000
C     4.383000000    -5.258000000     3.380000000
H     5.419000000    -5.352000000     3.065000000
C     3.960000000    -5.391000000     4.678000000
H     4.738000000    -5.470000000     5.433000000
C     2.621000000    -5.459000000     5.009000000
H     2.348000000    -5.846000000     5.987000000
C     1.670000000    -5.393000000     4.018000000
C     2.068000000    -5.265000000     2.677000000
H     1.260000000    -5.254000000     1.950000000
O    -1.139000000    -5.486000000    -6.854000000
H    -1.076000000    -6.222000000    -6.246000000
H    -1.298000000    -4.726000000    -6.295000000
O     0.709000000    -8.561000000    -3.155000000
H     0.631000000    -9.510000000    -3.255000000
H     0.498000000    -8.399000000    -2.235000000
O    -4.918000000    -9.927000000     1.147000000
H    -4.728000000    -9.449000000     0.339000000
H    -5.820000000    -9.690000000     1.359000000
O    -1.159000000    -7.299000000    -0.518000000
H    -1.660000000    -6.530000000    -0.788000000
H    -1.386000000    -7.421000000     0.404000000
O    -8.114000000    -4.600000000     0.908000000
H    -8.976000000    -4.337000000     0.585000000
H    -7.511000000    -4.357000000     0.206000000
O     1.595000000    -4.989000000    -4.252000000
H     1.997000000    -5.071000000    -3.387000000
H     0.982000000    -4.260000000    -4.162000000
O    -7.127000000    -6.450000000    -3.130000000
H    -6.781000000    -5.943000000    -2.395000000
H    -6.363000000    -6.898000000    -3.492000000
O    -1.391000000    -4.163000000    -4.252000000
H    -1.490000000    -4.738000000    -3.494000000
H    -1.758000000    -3.326000000    -3.968000000
O    -1.218000000    -7.487000000    -4.954000000
H    -0.545000000    -7.813000000    -4.357000000
H    -1.920000000    -7.180000000    -4.380000000
O    -5.119000000    -3.624000000    -4.228000000
H    -5.894000000    -3.169000000    -3.900000000
H    -4.508000000    -3.616000000    -3.491000000
O    -1.752000000   -10.249000000    -1.176000000
H    -2.085000000    -9.356000000    -1.271000000
H    -1.796000000   -10.422000000    -0.235000000
O    -5.290000000    -2.919000000    -6.609000000
H    -5.191000000    -3.302000000    -5.737000000
H    -6.039000000    -3.379000000    -6.989000000
O    -4.874000000    -7.382000000    -4.912000000
H    -4.081000000    -6.992000000    -4.544000000
H    -4.944000000    -7.003000000    -5.788000000
O    -2.396000000    -8.043000000     2.077000000
H    -1.463000000    -8.140000000     2.267000000
H    -2.778000000    -7.736000000     2.899000000
O    -4.545000000    -6.307000000     0.901000000
H    -4.107000000    -6.805000000     1.592000000
H    -3.856000000    -5.755000000     0.530000000
O     1.173000000    -3.402000000    -1.973000000
H     0.967000000    -2.471000000    -1.888000000
H     0.726000000    -3.815000000    -1.235000000
O    -4.365000000    -8.850000000    -2.063000000
H    -4.366000000    -9.627000000    -2.622000000
H    -5.272000000    -8.765000000    -1.769000000
O    -6.085000000    -5.024000000    -0.969000000
H    -5.445000000    -4.313000000    -0.935000000
H    -5.740000000    -5.685000000    -0.368000000
O    -3.157000000    -6.438000000    -3.304000000
H    -3.677000000    -5.689000000    -3.012000000
H    -3.266000000    -7.090000000    -2.612000000
