201
-1256.87832
C    -1.953000000    -4.687000000     0.220000000
H    -2.564000000    -4.312000000    -0.597000000
C    -1.932000000    -4.024000000     1.427000000
C    -1.200000000    -4.552000000     2.486000000
H    -1.150000000    -4.020000000     3.433000000
C    -2.598000000    -2.714000000     1.611000000
O    -3.840000000    -2.671000000     0.858000000
H    -1.917000000    -1.893000000     1.339000000
O    -3.013000000    -2.483000000     2.968000000
C    -3.024000000    -1.108000000     3.399000000
C    -1.820000000    -0.801000000     4.068000000
H    -1.080000000    -1.596000000     4.114000000
C    -1.558000000     0.468000000     4.616000000
O    -0.281000000     0.630000000     5.067000000
C    -2.362000000     1.514000000     4.222000000
C    -1.870000000     3.004000000     4.367000000
H    -2.750000000     3.622000000     4.554000000
C    -1.015000000     3.495000000     3.213000000
C    -1.546000000     4.166000000     2.132000000
H    -2.630000000     4.230000000     2.194000000
H    -1.394000000     3.202000000     5.330000000
C    -3.569000000     1.261000000     3.533000000
H    -4.222000000     2.117000000     3.383000000
C    -3.966000000    -0.067000000     3.136000000
C    -5.146000000    -0.346000000     2.142000000
H    -5.978000000     0.315000000     2.394000000
H    -5.565000000    -1.342000000     2.299000000
C    -4.730000000    -0.394000000     0.687000000
C    -4.890000000     0.757000000    -0.110000000
H    -5.236000000     1.706000000     0.289000000
C    -4.119000000    -1.494000000     0.104000000
C    -3.828000000    -1.546000000    -1.242000000
H    -3.485000000    -2.480000000    -1.680000000
C    -4.092000000    -0.520000000    -2.008000000
O    -3.746000000    -0.523000000    -3.328000000
C    -2.387000000     0.076000000    -3.503000000
C    -1.584000000    -0.788000000    -4.388000000
C    -0.629000000    -0.133000000    -5.146000000
H    -0.466000000     0.939000000    -5.210000000
C    -1.792000000    -2.172000000    -4.443000000
H    -2.476000000    -2.685000000    -3.772000000
O    -2.508000000     1.417000000    -4.088000000
H    -1.856000000     0.156000000    -2.543000000
C    -4.546000000     0.701000000    -1.415000000
C    -4.656000000     2.016000000    -2.234000000
H    -5.356000000     2.699000000    -1.749000000
H    -4.943000000     1.944000000    -3.286000000
C    -3.289000000     2.717000000    -2.254000000
C    -3.032000000     3.643000000    -1.243000000
H    -3.724000000     3.812000000    -0.422000000
C    -2.287000000     2.432000000    -3.182000000
C    -1.058000000     3.089000000    -3.145000000
H    -0.286000000     2.801000000    -3.854000000
C    -0.784000000     4.034000000    -2.203000000
O     0.491000000     4.580000000    -2.103000000
C     1.367000000     3.983000000    -1.160000000
C     2.760000000     3.785000000    -1.770000000
C     2.914000000     3.698000000    -3.111000000
H     2.081000000     3.848000000    -3.794000000
C     3.840000000     3.634000000    -0.903000000
H     3.759000000     3.773000000     0.173000000
O     1.423000000     4.766000000     0.030000000
H     0.883000000     3.028000000    -0.910000000
C    -1.774000000     4.330000000    -1.247000000
C    -1.412000000     5.308000000    -0.083000000
H    -2.337000000     5.758000000     0.285000000
H    -0.791000000     6.142000000    -0.417000000
C    -0.754000000     4.625000000     1.099000000
C     0.596000000     4.405000000     1.087000000
C     1.186000000     3.641000000     2.112000000
H     2.263000000     3.527000000     2.022000000
C     0.388000000     3.243000000     3.184000000
O     0.923000000     2.435000000     4.099000000
C     0.762000000     0.990000000     4.105000000
H     0.397000000     0.635000000     3.130000000
C     2.016000000     0.249000000     4.409000000
C     2.019000000    -1.063000000     4.866000000
H     1.074000000    -1.512000000     5.159000000
C     3.264000000     0.804000000     3.994000000
H     3.189000000     1.791000000     3.545000000
C     4.469000000     0.108000000     4.064000000
O     5.607000000     0.632000000     3.542000000
C     4.464000000    -1.206000000     4.595000000
H     5.373000000    -1.797000000     4.661000000
C     3.239000000    -1.778000000     4.963000000
O     3.280000000    -3.062000000     5.500000000
C     2.412000000    -4.062000000     5.548000000
C     1.833000000    -4.565000000     4.375000000
H     2.243000000    -4.170000000     3.449000000
C     2.000000000    -4.519000000     6.778000000
H     2.558000000    -4.247000000     7.670000000
C     0.999000000    -5.517000000     6.845000000
H     0.581000000    -5.884000000     7.779000000
C     0.439000000    -6.030000000     5.688000000
H    -0.321000000    -6.806000000     5.739000000
C     0.845000000    -5.578000000     4.455000000
O     0.410000000    -6.213000000     3.347000000
C    -0.335000000    -5.693000000     2.294000000
C    -0.324000000    -6.268000000     1.028000000
H     0.333000000    -7.102000000     0.793000000
C    -1.128000000    -5.795000000     0.007000000
O    -0.989000000    -6.485000000    -1.196000000
C    -1.717000000    -6.152000000    -2.361000000
C    -1.078000000    -5.387000000    -3.297000000
H    -0.037000000    -5.139000000    -3.107000000
C    -2.945000000    -6.698000000    -2.626000000
H    -3.414000000    -7.397000000    -1.938000000
C    -3.633000000    -6.397000000    -3.838000000
H    -4.600000000    -6.830000000    -4.081000000
C    -3.046000000    -5.531000000    -4.754000000
H    -3.478000000    -5.265000000    -5.715000000
C    -1.711000000    -5.127000000    -4.505000000
O    -1.011000000    -4.358000000    -5.446000000
C    -1.011000000    -2.916000000    -5.370000000
C     0.022000000    -2.279000000    -6.032000000
H     0.655000000    -2.888000000    -6.672000000
C     0.188000000    -0.908000000    -5.992000000
O     1.214000000    -0.358000000    -6.721000000
C     1.588000000     1.002000000    -6.651000000
C     2.698000000     1.299000000    -5.898000000
H     3.227000000     0.543000000    -5.323000000
C     0.879000000     1.969000000    -7.308000000
H    -0.013000000     1.774000000    -7.897000000
C     1.283000000     3.267000000    -7.231000000
H     0.613000000     4.051000000    -7.574000000
C     2.490000000     3.606000000    -6.567000000
H     2.716000000     4.664000000    -6.460000000
C     3.159000000     2.644000000    -5.842000000
O     4.222000000     2.931000000    -5.033000000
C     4.144000000     3.289000000    -3.680000000
C     5.228000000     3.135000000    -2.789000000
H     6.189000000     2.826000000    -3.191000000
C     5.116000000     3.292000000    -1.426000000
O     6.172000000     2.985000000    -0.605000000
C     6.104000000     2.975000000     0.808000000
C     6.180000000     4.213000000     1.546000000
H     6.325000000     5.154000000     1.022000000
C     5.918000000     4.235000000     2.891000000
H     5.938000000     5.168000000     3.449000000
C     5.745000000     3.049000000     3.624000000
H     5.521000000     3.132000000     4.684000000
C     5.749000000     1.848000000     2.955000000
C     5.878000000     1.813000000     1.550000000
H     5.690000000     0.858000000     1.065000000
O     3.557000000    -5.524000000    -7.084000000
H     3.378000000    -6.218000000    -6.450000000
H     3.370000000    -4.713000000    -6.611000000
O     3.371000000    -2.921000000    -5.578000000
H     4.248000000    -2.632000000    -5.327000000
H     2.958000000    -3.177000000    -4.753000000
O     3.103000000    -5.519000000     1.582000000
H     2.899000000    -6.428000000     1.361000000
H     2.971000000    -5.039000000     0.764000000
O     6.199000000    -8.022000000    -0.108000000
H     5.566000000    -8.677000000     0.187000000
H     5.673000000    -7.380000000    -0.586000000
O     2.522000000    -8.080000000     2.136000000
H     1.998000000    -8.858000000     1.943000000
H     2.046000000    -7.640000000     2.840000000
O     0.542000000    -8.942000000    -3.170000000
H     0.245000000    -8.754000000    -4.060000000
H     0.916000000    -8.116000000    -2.863000000
O     2.960000000    -7.673000000    -5.522000000
H     3.426000000    -8.459000000    -5.240000000
H     2.867000000    -7.150000000    -4.726000000
O     7.941000000    -5.030000000    -0.394000000
H     7.090000000    -5.451000000    -0.511000000
H     8.001000000    -4.406000000    -1.117000000
O     5.989000000    -2.262000000     0.378000000
H     5.402000000    -2.239000000    -0.378000000
H     6.763000000    -2.731000000     0.066000000
O     7.974000000    -3.177000000    -2.405000000
H     8.446000000    -3.894000000    -2.827000000
H     8.625000000    -2.480000000    -2.319000000
O     5.294000000    -9.300000000    -2.739000000
H     5.748000000    -8.969000000    -1.964000000
H     5.750000000   -10.114000000    -2.954000000
O     2.699000000    -6.731000000    -2.701000000
H     2.805000000    -5.790000000    -2.559000000
H     2.449000000    -7.075000000    -1.843000000
O     5.462000000    -2.529000000    -3.889000000
H     6.194000000    -2.807000000    -3.340000000
H     4.684000000    -2.851000000    -3.433000000
O     6.391000000     0.447000000    -5.083000000
H     5.879000000    -0.348000000    -4.930000000
H     7.054000000     0.441000000    -4.393000000
O     2.418000000    -8.372000000    -0.616000000
H     2.517000000    -8.160000000     0.312000000
H     1.508000000    -8.657000000    -0.701000000
O     5.337000000    -5.764000000    -1.423000000
H     5.105000000    -6.097000000    -2.290000000
H     4.587000000    -5.229000000    -1.163000000
O     7.332000000    -2.307000000    -5.752000000
H     6.615000000    -2.520000000    -5.155000000
H     7.525000000    -3.132000000    -6.199000000
O    -0.197000000    -8.177000000    -5.567000000
H     0.125000000    -7.348000000    -5.920000000
H    -0.027000000    -8.815000000    -6.260000000
O     5.206000000    -3.852000000     2.499000000
H     4.336000000    -4.182000000     2.274000000
H     5.293000000    -3.044000000     1.993000000
