201
-1226.66219
C    -1.663000000    -4.455000000     1.148000000
H    -2.015000000    -4.043000000     0.206000000
C    -1.971000000    -3.753000000     2.290000000
C    -1.472000000    -4.225000000     3.520000000
H    -1.599000000    -3.649000000     4.433000000
C    -2.811000000    -2.493000000     2.227000000
O    -3.975000000    -2.682000000     1.421000000
H    -2.224000000    -1.709000000     1.724000000
O    -3.269000000    -2.080000000     3.554000000
C    -3.062000000    -0.732000000     3.616000000
C    -1.899000000    -0.450000000     4.281000000
H    -1.294000000    -1.258000000     4.683000000
C    -1.449000000     0.852000000     4.336000000
O    -0.181000000     1.144000000     4.734000000
C    -2.238000000     1.880000000     3.833000000
C    -1.888000000     3.368000000     4.043000000
H    -2.741000000     3.998000000     4.304000000
C    -0.992000000     3.855000000     2.903000000
C    -1.646000000     4.398000000     1.757000000
H    -2.730000000     4.417000000     1.691000000
H    -1.413000000     3.389000000     5.026000000
C    -3.472000000     1.548000000     3.223000000
H    -4.140000000     2.345000000     2.906000000
C    -3.830000000     0.238000000     2.986000000
C    -5.142000000    -0.057000000     2.312000000
H    -5.871000000     0.755000000     2.277000000
H    -5.659000000    -0.872000000     2.823000000
C    -4.867000000    -0.431000000     0.904000000
C    -5.041000000     0.565000000    -0.012000000
H    -5.512000000     1.495000000     0.295000000
C    -4.326000000    -1.662000000     0.499000000
C    -3.907000000    -1.912000000    -0.825000000
H    -3.575000000    -2.902000000    -1.127000000
C    -4.182000000    -0.896000000    -1.752000000
O    -3.893000000    -1.150000000    -3.065000000
C    -2.672000000    -0.505000000    -3.517000000
C    -1.853000000    -1.430000000    -4.339000000
C    -1.217000000    -0.931000000    -5.512000000
H    -1.240000000     0.112000000    -5.817000000
C    -1.625000000    -2.738000000    -3.924000000
H    -2.329000000    -3.103000000    -3.180000000
O    -2.744000000     0.842000000    -4.173000000
H    -2.140000000    -0.262000000    -2.585000000
C    -4.665000000     0.394000000    -1.358000000
C    -4.709000000     1.604000000    -2.297000000
H    -5.539000000     2.212000000    -1.931000000
H    -5.072000000     1.235000000    -3.258000000
C    -3.353000000     2.261000000    -2.406000000
C    -3.079000000     3.311000000    -1.480000000
H    -3.828000000     3.546000000    -0.728000000
C    -2.488000000     1.962000000    -3.403000000
C    -1.237000000     2.596000000    -3.425000000
H    -0.583000000     2.250000000    -4.221000000
C    -0.947000000     3.562000000    -2.504000000
O     0.328000000     4.094000000    -2.507000000
C     1.255000000     3.761000000    -1.505000000
C     2.664000000     3.477000000    -2.075000000
C     2.698000000     2.920000000    -3.368000000
H     1.734000000     2.780000000    -3.850000000
C     3.845000000     3.549000000    -1.336000000
H     3.792000000     3.923000000    -0.317000000
O     1.288000000     4.701000000    -0.526000000
H     0.809000000     2.910000000    -0.968000000
C    -1.831000000     3.975000000    -1.558000000
C    -1.549000000     5.222000000    -0.637000000
H    -2.523000000     5.624000000    -0.353000000
H    -1.003000000     6.044000000    -1.105000000
C    -0.885000000     4.679000000     0.611000000
C     0.542000000     4.548000000     0.648000000
C     1.109000000     4.091000000     1.808000000
H     2.148000000     3.781000000     1.738000000
C     0.397000000     3.740000000     2.956000000
O     0.969000000     2.987000000     3.908000000
C     0.842000000     1.555000000     3.804000000
H     0.544000000     1.443000000     2.751000000
C     2.241000000     0.900000000     3.920000000
C     2.288000000    -0.458000000     4.122000000
H     1.423000000    -0.989000000     4.513000000
C     3.410000000     1.562000000     3.543000000
H     3.515000000     2.622000000     3.331000000
C     4.632000000     0.850000000     3.400000000
O     5.868000000     1.429000000     3.229000000
C     4.608000000    -0.505000000     3.603000000
H     5.524000000    -1.084000000     3.510000000
C     3.472000000    -1.164000000     3.985000000
O     3.541000000    -2.484000000     4.418000000
C     2.455000000    -3.108000000     5.058000000
C     1.690000000    -4.056000000     4.393000000
H     1.877000000    -4.316000000     3.354000000
C     2.176000000    -2.843000000     6.424000000
H     2.779000000    -2.124000000     6.973000000
C     1.257000000    -3.564000000     7.147000000
H     1.162000000    -3.351000000     8.209000000
C     0.503000000    -4.552000000     6.466000000
H    -0.131000000    -5.199000000     7.067000000
C     0.837000000    -4.816000000     5.156000000
O    -0.019000000    -5.760000000     4.633000000
C    -0.699000000    -5.396000000     3.521000000
C    -0.320000000    -6.087000000     2.357000000
H     0.362000000    -6.933000000     2.386000000
C    -0.847000000    -5.577000000     1.121000000
O    -0.532000000    -6.173000000    -0.028000000
C    -1.287000000    -6.259000000    -1.176000000
C    -0.947000000    -5.479000000    -2.221000000
H    -0.196000000    -4.725000000    -1.999000000
C    -2.202000000    -7.322000000    -1.472000000
H    -2.628000000    -7.886000000    -0.646000000
C    -2.778000000    -7.405000000    -2.733000000
H    -3.509000000    -8.174000000    -2.969000000
C    -2.460000000    -6.451000000    -3.712000000
H    -2.675000000    -6.692000000    -4.750000000
C    -1.459000000    -5.541000000    -3.478000000
O    -0.726000000    -4.974000000    -4.531000000
C    -0.826000000    -3.551000000    -4.712000000
C    -0.058000000    -3.019000000    -5.776000000
H     0.587000000    -3.657000000    -6.375000000
C    -0.205000000    -1.707000000    -6.135000000
O     0.551000000    -1.188000000    -7.188000000
C     1.090000000     0.089000000    -6.979000000
C     2.265000000     0.228000000    -6.198000000
H     2.858000000    -0.631000000    -5.894000000
C     0.466000000     1.269000000    -7.430000000
H    -0.549000000     1.236000000    -7.818000000
C     1.148000000     2.511000000    -7.292000000
H     0.614000000     3.396000000    -7.630000000
C     2.224000000     2.660000000    -6.465000000
H     2.666000000     3.632000000    -6.265000000
C     2.739000000     1.498000000    -5.871000000
O     3.910000000     1.621000000    -5.071000000
C     3.886000000     2.373000000    -3.877000000
C     5.058000000     2.433000000    -3.153000000
H     6.005000000     2.036000000    -3.509000000
C     4.977000000     3.033000000    -1.929000000
O     6.207000000     3.042000000    -1.205000000
C     6.235000000     3.253000000     0.117000000
C     6.280000000     4.568000000     0.544000000
H     6.541000000     5.411000000    -0.090000000
C     6.336000000     4.809000000     1.928000000
H     6.686000000     5.751000000     2.342000000
C     6.222000000     3.715000000     2.795000000
H     6.178000000     3.912000000     3.863000000
C     5.977000000     2.458000000     2.338000000
C     5.963000000     2.175000000     1.009000000
H     5.836000000     1.170000000     0.615000000
O     2.324000000    -5.175000000    -5.949000000
H     2.334000000    -5.160000000    -4.992000000
H     3.215000000    -4.930000000    -6.201000000
O     4.557000000    -7.107000000     1.634000000
H     4.006000000    -6.690000000     0.971000000
H     4.074000000    -7.894000000     1.886000000
O     4.704000000    -3.506000000    -4.708000000
H     5.625000000    -3.245000000    -4.705000000
H     4.418000000    -3.385000000    -3.802000000
O     2.557000000    -5.746000000     0.453000000
H     1.765000000    -6.236000000     0.236000000
H     2.814000000    -5.328000000    -0.369000000
O     4.579000000    -7.898000000    -5.188000000
H     4.109000000    -8.723000000    -5.070000000
H     4.056000000    -7.254000000    -4.712000000
O     8.736000000    -5.193000000    -0.670000000
H     7.829000000    -5.480000000    -0.774000000
H     8.721000000    -4.265000000    -0.904000000
O     5.649000000    -2.752000000     0.454000000
H     5.251000000    -2.109000000    -0.134000000
H     6.130000000    -3.342000000    -0.127000000
O     8.590000000    -2.613000000    -1.158000000
H     9.032000000    -2.230000000    -1.916000000
H     8.974000000    -2.167000000    -0.404000000
O     6.434000000    -6.631000000    -3.823000000
H     6.606000000    -7.055000000    -2.982000000
H     5.776000000    -7.186000000    -4.241000000
O     8.071000000    -3.083000000     3.512000000
H     8.316000000    -3.542000000     4.316000000
H     7.340000000    -3.592000000     3.160000000
O     2.964000000    -5.946000000    -3.225000000
H     3.083000000    -5.199000000    -2.638000000
H     2.221000000    -6.424000000    -2.857000000
O     6.718000000    -1.628000000    -3.277000000
H     6.875000000    -2.402000000    -2.737000000
H     5.784000000    -1.448000000    -3.173000000
O     8.207000000    -0.058000000    -4.907000000
H     7.505000000    -0.610000000    -4.564000000
H     8.342000000     0.606000000    -4.232000000
O     1.635000000    -7.701000000    -1.923000000
H     1.344000000    -7.874000000    -1.028000000
H     2.560000000    -7.948000000    -1.927000000
O     8.205000000     0.679000000    -1.997000000
H     8.623000000     0.322000000    -1.213000000
H     7.553000000     0.022000000    -2.240000000
O     8.675000000    -5.535000000    -4.992000000
H     8.304000000    -5.198000000    -5.808000000
H     7.915000000    -5.812000000    -4.480000000
O     0.455000000    -7.351000000    -5.371000000
H    -0.159000000    -6.859000000    -5.916000000
H     0.833000000    -6.697000000    -4.785000000
O     5.947000000    -4.607000000    -1.541000000
H     6.017000000    -5.026000000    -2.398000000
H     5.010000000    -4.444000000    -1.430000000
O     5.414000000    -4.237000000     2.754000000
H     4.939000000    -4.883000000     2.230000000
H     5.369000000    -3.431000000     2.239000000
