201
-1243.08019
C     0.659000000    -4.683000000    -0.967000000
H    -0.062000000    -4.224000000    -1.637000000
C     0.381000000    -4.732000000     0.432000000
C     1.343000000    -5.125000000     1.324000000
H     1.150000000    -4.996000000     2.386000000
C    -0.868000000    -4.089000000     0.986000000
O    -2.039000000    -4.472000000     0.231000000
H    -0.729000000    -3.007000000     0.843000000
O    -1.130000000    -4.355000000     2.377000000
C    -1.523000000    -3.284000000     3.141000000
C    -0.493000000    -2.523000000     3.761000000
H     0.486000000    -2.978000000     3.636000000
C    -0.684000000    -1.321000000     4.365000000
O     0.463000000    -0.681000000     4.855000000
C    -1.977000000    -0.762000000     4.389000000
C    -2.276000000     0.543000000     5.051000000
H    -3.331000000     0.535000000     5.332000000
C    -2.037000000     1.754000000     4.093000000
C    -3.040000000     2.222000000     3.239000000
H    -4.058000000     1.857000000     3.348000000
H    -1.741000000     0.783000000     5.972000000
C    -3.003000000    -1.437000000     3.745000000
H    -4.032000000    -1.087000000     3.707000000
C    -2.752000000    -2.690000000     3.107000000
C    -3.845000000    -3.376000000     2.346000000
H    -4.831000000    -3.258000000     2.801000000
H    -3.647000000    -4.448000000     2.409000000
C    -3.878000000    -2.998000000     0.845000000
C    -4.671000000    -1.903000000     0.376000000
H    -5.356000000    -1.399000000     1.053000000
C    -3.015000000    -3.596000000    -0.054000000
C    -3.024000000    -3.174000000    -1.392000000
H    -2.328000000    -3.696000000    -2.043000000
C    -3.796000000    -2.120000000    -1.883000000
O    -3.635000000    -1.714000000    -3.117000000
C    -2.793000000    -0.596000000    -3.303000000
C    -1.913000000    -0.753000000    -4.547000000
C    -1.416000000     0.399000000    -5.206000000
H    -1.841000000     1.325000000    -4.828000000
C    -1.514000000    -2.016000000    -5.070000000
H    -1.769000000    -2.887000000    -4.473000000
O    -3.651000000     0.595000000    -3.327000000
H    -2.104000000    -0.587000000    -2.446000000
C    -4.624000000    -1.500000000    -0.923000000
C    -5.490000000    -0.261000000    -1.352000000
H    -6.321000000    -0.258000000    -0.645000000
H    -5.834000000    -0.350000000    -2.385000000
C    -4.710000000     1.029000000    -1.183000000
C    -4.835000000     1.883000000    -0.100000000
H    -5.525000000     1.644000000     0.706000000
C    -3.800000000     1.372000000    -2.202000000
C    -3.016000000     2.478000000    -2.058000000
H    -2.314000000     2.724000000    -2.850000000
C    -3.170000000     3.311000000    -0.953000000
O    -2.225000000     4.292000000    -0.768000000
C    -1.073000000     3.996000000    -0.031000000
C     0.276000000     4.411000000    -0.689000000
C     0.582000000     4.131000000    -2.056000000
H    -0.083000000     3.626000000    -2.752000000
C     1.252000000     5.003000000     0.123000000
H     1.089000000     5.271000000     1.164000000
O    -1.153000000     4.503000000     1.232000000
H    -0.960000000     2.904000000     0.037000000
C    -4.041000000     3.004000000     0.045000000
C    -3.983000000     3.688000000     1.455000000
H    -4.923000000     3.704000000     2.011000000
H    -3.896000000     4.756000000     1.244000000
C    -2.809000000     3.194000000     2.278000000
C    -1.522000000     3.707000000     2.237000000
C    -0.505000000     3.236000000     3.068000000
H     0.468000000     3.683000000     2.879000000
C    -0.751000000     2.199000000     3.938000000
O     0.286000000     1.694000000     4.628000000
C     0.923000000     0.532000000     4.136000000
H     0.522000000     0.392000000     3.121000000
C     2.465000000     0.650000000     4.090000000
C     3.183000000    -0.472000000     3.867000000
H     2.660000000    -1.424000000     3.927000000
C     3.003000000     1.911000000     3.916000000
H     2.420000000     2.820000000     4.039000000
C     4.403000000     2.008000000     3.700000000
O     5.084000000     3.237000000     3.803000000
C     5.141000000     0.850000000     3.464000000
H     6.194000000     0.958000000     3.218000000
C     4.531000000    -0.418000000     3.505000000
O     5.314000000    -1.488000000     3.329000000
C     4.885000000    -2.785000000     3.511000000
C     4.410000000    -3.612000000     2.474000000
H     4.483000000    -3.242000000     1.455000000
C     4.887000000    -3.287000000     4.811000000
H     5.358000000    -2.707000000     5.600000000
C     4.324000000    -4.486000000     5.086000000
H     4.365000000    -4.755000000     6.139000000
C     3.913000000    -5.354000000     4.044000000
H     3.423000000    -6.310000000     4.210000000
C     4.004000000    -4.904000000     2.742000000
O     3.619000000    -5.812000000     1.722000000
C     2.603000000    -5.501000000     0.860000000
C     2.880000000    -5.459000000    -0.537000000
H     3.921000000    -5.653000000    -0.783000000
C     1.930000000    -5.103000000    -1.485000000
O     2.178000000    -5.080000000    -2.810000000
C     1.194000000    -5.181000000    -3.743000000
C     0.962000000    -4.186000000    -4.681000000
H     1.618000000    -3.328000000    -4.799000000
C     0.445000000    -6.397000000    -3.752000000
H     0.801000000    -7.208000000    -3.121000000
C    -0.526000000    -6.650000000    -4.747000000
H    -1.095000000    -7.568000000    -4.871000000
C    -0.762000000    -5.635000000    -5.623000000
H    -1.557000000    -5.814000000    -6.343000000
C    -0.083000000    -4.435000000    -5.603000000
O    -0.380000000    -3.495000000    -6.526000000
C    -0.693000000    -2.167000000    -6.194000000
C    -0.068000000    -0.982000000    -6.667000000
H     0.628000000    -1.091000000    -7.495000000
C    -0.435000000     0.266000000    -6.239000000
O    -0.093000000     1.320000000    -7.054000000
C     0.120000000     2.581000000    -6.506000000
C     1.110000000     2.838000000    -5.560000000
H     1.791000000     2.029000000    -5.306000000
C    -0.653000000     3.636000000    -6.953000000
H    -1.404000000     3.433000000    -7.712000000
C    -0.454000000     4.992000000    -6.511000000
H    -1.059000000     5.783000000    -6.948000000
C     0.383000000     5.166000000    -5.440000000
H     0.391000000     6.156000000    -4.990000000
C     1.212000000     4.104000000    -4.932000000
O     2.120000000     4.225000000    -3.859000000
C     1.833000000     4.445000000    -2.572000000
C     2.830000000     5.022000000    -1.713000000
H     3.739000000     5.446000000    -2.134000000
C     2.461000000     5.377000000    -0.445000000
O     3.484000000     6.029000000     0.319000000
C     3.792000000     5.850000000     1.684000000
C     3.518000000     6.811000000     2.582000000
H     3.127000000     7.743000000     2.182000000
C     3.637000000     6.594000000     3.949000000
H     3.400000000     7.412000000     4.626000000
C     4.196000000     5.346000000     4.370000000
H     4.260000000     5.133000000     5.434000000
C     4.489000000     4.389000000     3.394000000
C     4.210000000     4.615000000     2.055000000
H     4.371000000     3.789000000     1.366000000
O     6.095000000    -3.939000000    -6.358000000
H     6.604000000    -4.730000000    -6.534000000
H     5.668000000    -4.110000000    -5.519000000
O     7.091000000    -1.088000000    -6.867000000
H     6.615000000    -0.523000000    -6.257000000
H     6.495000000    -1.819000000    -7.029000000
O     4.044000000    -2.700000000    -7.842000000
H     4.655000000    -3.296000000    -7.409000000
H     4.303000000    -2.720000000    -8.764000000
O     5.907000000    -4.238000000    -0.955000000
H     6.587000000    -4.104000000    -1.614000000
H     5.328000000    -3.482000000    -1.050000000
O     3.587000000    -0.008000000    -7.464000000
H     3.141000000     0.055000000    -6.620000000
H     3.852000000    -0.925000000    -7.527000000
O     6.560000000     4.405000000    -2.274000000
H     6.755000000     5.162000000    -2.828000000
H     6.147000000     3.776000000    -2.865000000
O     6.352000000    -6.634000000    -3.085000000
H     6.048000000    -6.479000000    -2.191000000
H     7.307000000    -6.605000000    -3.022000000
O     9.048000000     0.494000000    -4.243000000
H     9.369000000     0.584000000    -5.140000000
H     8.140000000     0.206000000    -4.341000000
O     6.462000000    -0.082000000    -0.358000000
H     6.895000000    -0.573000000     0.340000000
H     5.842000000    -0.703000000    -0.740000000
O     4.947000000     2.266000000    -2.625000000
H     4.759000000     1.378000000    -2.321000000
H     4.771000000     2.821000000    -1.865000000
O     7.990000000     2.346000000    -0.786000000
H     7.521000000     1.516000000    -0.699000000
H     7.928000000     2.560000000    -1.717000000
O     6.443000000    -0.196000000    -4.473000000
H     5.818000000    -0.305000000    -3.756000000
H     6.266000000     0.680000000    -4.815000000
O     5.206000000     2.176000000    -5.398000000
H     4.734000000     2.802000000    -5.947000000
H     4.975000000     2.423000000    -4.502000000
O     4.644000000    -5.206000000    -4.496000000
H     4.067000000    -5.090000000    -3.742000000
H     5.314000000    -5.819000000    -4.193000000
O     2.527000000    -0.229000000    -4.673000000
H     2.071000000    -0.358000000    -3.842000000
H     3.442000000    -0.095000000    -4.427000000
O     8.837000000    -3.692000000    -4.640000000
H     8.411000000    -4.458000000    -5.026000000
H     8.160000000    -3.292000000    -4.095000000
O     7.994000000    -1.751000000     1.446000000
H     8.627000000    -1.033000000     1.431000000
H     7.414000000    -1.543000000     2.178000000
O     6.236000000    -6.419000000     0.402000000
H     7.191000000    -6.454000000     0.448000000
H     6.039000000    -5.502000000     0.214000000
O     6.676000000    -3.025000000    -3.453000000
H     6.106000000    -2.648000000    -2.782000000
H     6.471000000    -2.532000000    -4.247000000
