201
-1277.50044
C     1.798000000    -3.868000000    -1.826000000
H     0.936000000    -3.791000000    -2.485000000
C     1.663000000    -4.158000000    -0.465000000
C     2.809000000    -4.212000000     0.341000000
H     2.754000000    -4.408000000     1.409000000
C     0.342000000    -4.038000000     0.185000000
O    -0.699000000    -4.742000000    -0.610000000
H     0.082000000    -2.969000000     0.184000000
O     0.366000000    -4.577000000     1.543000000
C    -0.215000000    -3.732000000     2.487000000
C     0.616000000    -2.915000000     3.267000000
H     1.694000000    -3.045000000     3.224000000
C     0.030000000    -2.049000000     4.176000000
O     0.938000000    -1.189000000     4.760000000
C    -1.344000000    -1.843000000     4.252000000
C    -1.962000000    -0.772000000     5.086000000
H    -2.965000000    -1.128000000     5.331000000
C    -2.079000000     0.635000000     4.423000000
C    -3.177000000     0.931000000     3.667000000
H    -3.981000000     0.200000000     3.638000000
H    -1.452000000    -0.655000000     6.045000000
C    -2.182000000    -2.675000000     3.481000000
H    -3.254000000    -2.611000000     3.646000000
C    -1.607000000    -3.655000000     2.621000000
C    -2.528000000    -4.509000000     1.756000000
H    -3.505000000    -4.536000000     2.243000000
H    -2.364000000    -5.568000000     1.548000000
C    -2.735000000    -3.785000000     0.406000000
C    -3.846000000    -2.931000000     0.315000000
H    -4.371000000    -2.725000000     1.244000000
C    -1.923000000    -4.128000000    -0.744000000
C    -2.368000000    -3.615000000    -1.954000000
H    -1.776000000    -3.747000000    -2.856000000
C    -3.461000000    -2.709000000    -1.988000000
O    -3.629000000    -2.082000000    -3.144000000
C    -3.168000000    -0.665000000    -3.327000000
C    -2.474000000    -0.424000000    -4.652000000
C    -2.546000000     0.761000000    -5.298000000
H    -3.098000000     1.566000000    -4.820000000
C    -1.636000000    -1.439000000    -5.204000000
H    -1.753000000    -2.459000000    -4.848000000
O    -4.237000000     0.297000000    -3.076000000
H    -2.348000000    -0.447000000    -2.626000000
C    -4.300000000    -2.367000000    -0.853000000
C    -5.435000000    -1.325000000    -0.967000000
H    -6.205000000    -1.667000000    -0.272000000
H    -5.904000000    -1.468000000    -1.943000000
C    -4.935000000     0.078000000    -0.715000000
C    -4.940000000     0.632000000     0.528000000
H    -5.343000000     0.063000000     1.363000000
C    -4.324000000     0.809000000    -1.772000000
C    -3.792000000     2.089000000    -1.475000000
H    -3.167000000     2.550000000    -2.235000000
C    -3.872000000     2.671000000    -0.207000000
O    -3.323000000     3.918000000     0.066000000
C    -1.992000000     3.756000000     0.785000000
C    -0.897000000     4.588000000     0.138000000
C    -0.858000000     4.472000000    -1.243000000
H    -1.556000000     3.861000000    -1.809000000
C     0.075000000     5.322000000     0.772000000
H     0.090000000     5.533000000     1.838000000
O    -2.094000000     4.063000000     2.160000000
H    -1.749000000     2.683000000     0.763000000
C    -4.417000000     1.870000000     0.812000000
C    -4.510000000     2.407000000     2.178000000
H    -5.409000000     2.064000000     2.693000000
H    -4.791000000     3.462000000     2.170000000
C    -3.214000000     2.135000000     2.976000000
C    -2.072000000     2.965000000     3.006000000
C    -0.987000000     2.724000000     3.764000000
H    -0.106000000     3.358000000     3.832000000
C    -0.975000000     1.535000000     4.475000000
O     0.350000000     1.143000000     4.901000000
C     1.159000000     0.122000000     4.200000000
H     0.696000000     0.125000000     3.202000000
C     2.637000000     0.514000000     4.324000000
C     3.568000000    -0.516000000     4.434000000
H     3.217000000    -1.494000000     4.755000000
C     2.996000000     1.800000000     3.885000000
H     2.284000000     2.524000000     3.498000000
C     4.407000000     2.017000000     3.713000000
O     4.811000000     3.250000000     3.315000000
C     5.344000000     1.005000000     3.911000000
H     6.396000000     1.268000000     3.833000000
C     4.896000000    -0.268000000     4.281000000
O     5.772000000    -1.290000000     4.219000000
C     5.466000000    -2.539000000     3.718000000
C     5.345000000    -2.774000000     2.321000000
H     5.383000000    -1.868000000     1.722000000
C     5.662000000    -3.593000000     4.590000000
H     5.924000000    -3.383000000     5.625000000
C     5.551000000    -4.947000000     4.130000000
H     5.773000000    -5.820000000     4.738000000
C     5.405000000    -5.127000000     2.728000000
H     5.292000000    -6.147000000     2.369000000
C     5.340000000    -4.060000000     1.829000000
O     5.159000000    -4.370000000     0.564000000
C     4.045000000    -4.189000000    -0.272000000
C     4.201000000    -3.934000000    -1.647000000
H     5.204000000    -3.952000000    -2.065000000
C     3.075000000    -3.736000000    -2.447000000
O     3.271000000    -3.538000000    -3.771000000
C     2.175000000    -3.765000000    -4.530000000
C     1.650000000    -2.761000000    -5.269000000
H     2.084000000    -1.767000000    -5.198000000
C     1.846000000    -5.080000000    -4.769000000
H     2.432000000    -5.860000000    -4.288000000
C     0.774000000    -5.374000000    -5.577000000
H     0.541000000    -6.426000000    -5.715000000
C     0.099000000    -4.342000000    -6.240000000
H    -0.844000000    -4.502000000    -6.756000000
C     0.611000000    -3.065000000    -6.194000000
O     0.003000000    -2.086000000    -6.971000000
C    -0.827000000    -1.177000000    -6.348000000
C    -0.803000000     0.138000000    -6.829000000
H    -0.130000000     0.397000000    -7.643000000
C    -1.677000000     1.109000000    -6.355000000
O    -1.591000000     2.385000000    -6.954000000
C    -1.530000000     3.488000000    -6.130000000
C    -0.623000000     3.616000000    -5.112000000
H     0.051000000     2.805000000    -4.848000000
C    -2.488000000     4.468000000    -6.321000000
H    -3.282000000     4.322000000    -7.050000000
C    -2.484000000     5.648000000    -5.596000000
H    -3.202000000     6.414000000    -5.876000000
C    -1.574000000     5.777000000    -4.513000000
H    -1.502000000     6.704000000    -3.951000000
C    -0.682000000     4.687000000    -4.300000000
O     0.327000000     4.800000000    -3.317000000
C     0.200000000     5.088000000    -1.951000000
C     1.206000000     5.717000000    -1.313000000
H     2.153000000     5.935000000    -1.798000000
C     1.133000000     5.890000000     0.076000000
O     2.240000000     6.426000000     0.709000000
C     2.654000000     5.920000000     1.955000000
C     2.343000000     6.602000000     3.170000000
H     1.557000000     7.352000000     3.126000000
C     2.747000000     6.092000000     4.365000000
H     2.444000000     6.458000000     5.343000000
C     3.624000000     5.041000000     4.426000000
H     4.045000000     4.741000000     5.383000000
C     3.975000000     4.333000000     3.284000000
C     3.500000000     4.787000000     2.027000000
H     3.891000000     4.402000000     1.088000000
O     4.782000000    -1.845000000    -7.728000000
H     4.046000000    -1.254000000    -7.573000000
H     4.418000000    -2.721000000    -7.598000000
O     4.465000000    -0.774000000    -3.419000000
H     5.082000000    -1.052000000    -4.095000000
H     3.911000000    -0.125000000    -3.852000000
O     8.441000000     3.389000000    -3.945000000
H     8.658000000     3.765000000    -3.092000000
H     7.957000000     2.590000000    -3.738000000
O     7.128000000     2.136000000    -0.752000000
H     8.070000000     2.134000000    -0.583000000
H     6.769000000     1.514000000    -0.119000000
O     2.674000000     4.684000000    -4.773000000
H     2.903000000     3.948000000    -4.205000000
H     1.877000000     5.047000000    -4.386000000
O     7.621000000     1.376000000    -6.438000000
H     7.500000000     2.233000000    -6.846000000
H     6.732000000     1.065000000    -6.267000000
O     3.480000000     3.393000000    -7.172000000
H     2.984000000     3.631000000    -6.389000000
H     4.306000000     3.044000000    -6.835000000
O     7.625000000    -1.555000000    -2.180000000
H     6.694000000    -1.439000000    -1.989000000
H     7.746000000    -2.503000000    -2.216000000
O     1.700000000     7.303000000    -5.605000000
H     2.261000000     6.982000000    -4.900000000
H     2.170000000     8.058000000    -5.961000000
O     7.044000000     1.129000000    -3.409000000
H     7.084000000     0.183000000    -3.552000000
H     7.117000000     1.231000000    -2.460000000
O     3.906000000     6.702000000    -3.596000000
H     4.842000000     6.526000000    -3.500000000
H     3.540000000     5.883000000    -3.929000000
O     3.728000000    -0.783000000    -0.521000000
H     2.940000000    -1.326000000    -0.481000000
H     3.954000000    -0.759000000    -1.451000000
O     6.226000000    -1.611000000    -5.547000000
H     7.063000000    -2.036000000    -5.732000000
H     5.852000000    -1.433000000    -6.410000000
O     5.615000000     0.630000000     0.897000000
H     5.155000000     1.270000000     1.440000000
H     4.923000000     0.204000000     0.391000000
O     3.088000000     0.278000000    -6.896000000
H     3.489000000     1.107000000    -7.157000000
H     2.792000000     0.426000000    -5.998000000
O     5.057000000     5.715000000    -6.777000000
H     5.027000000     6.633000000    -7.046000000
H     4.167000000     5.523000000    -6.481000000
O     6.377000000     5.494000000    -4.359000000
H     6.833000000     4.700000000    -4.082000000
H     5.918000000     5.241000000    -5.160000000
O     5.218000000     1.744000000    -5.364000000
H     4.349000000     1.703000000    -4.964000000
H     5.822000000     1.577000000    -4.640000000
O     4.776000000     3.711000000    -1.327000000
H     5.362000000     2.965000000    -1.202000000
H     4.232000000     3.465000000    -2.076000000
