201
-1260.83331
C    -5.099000000     0.803000000    -1.812000000
H    -4.736000000     1.383000000    -2.657000000
C    -4.924000000     1.079000000    -0.447000000
C    -5.426000000     0.150000000     0.470000000
H    -5.155000000     0.276000000     1.515000000
C    -4.000000000     2.172000000    -0.103000000
O    -3.863000000     3.132000000    -1.061000000
H    -3.045000000     1.630000000    -0.047000000
O    -4.327000000     2.766000000     1.176000000
C    -3.207000000     2.930000000     2.013000000
C    -2.987000000     1.978000000     3.014000000
H    -3.702000000     1.179000000     3.194000000
C    -1.865000000     2.064000000     3.765000000
O    -1.503000000     1.022000000     4.656000000
C    -0.989000000     3.111000000     3.564000000
C     0.333000000     3.265000000     4.388000000
H     0.522000000     4.334000000     4.509000000
C     1.514000000     2.537000000     3.693000000
C     2.379000000     3.161000000     2.780000000
H     2.241000000     4.232000000     2.659000000
H     0.197000000     2.881000000     5.401000000
C    -1.215000000     4.105000000     2.618000000
H    -0.511000000     4.914000000     2.440000000
C    -2.304000000     3.970000000     1.761000000
C    -2.472000000     4.972000000     0.597000000
H    -2.013000000     5.927000000     0.862000000
H    -3.521000000     5.239000000     0.454000000
C    -1.849000000     4.474000000    -0.642000000
C    -0.541000000     4.843000000    -1.055000000
H     0.052000000     5.519000000    -0.445000000
C    -2.559000000     3.529000000    -1.410000000
C    -2.036000000     3.074000000    -2.592000000
H    -2.585000000     2.301000000    -3.123000000
C    -0.730000000     3.399000000    -2.959000000
O    -0.218000000     2.743000000    -4.064000000
C     0.904000000     1.839000000    -3.882000000
C     0.785000000     0.574000000    -4.726000000
C     1.846000000    -0.063000000    -5.343000000
H     2.813000000     0.426000000    -5.257000000
C    -0.455000000    -0.083000000    -4.763000000
H    -1.289000000     0.474000000    -4.344000000
O     2.190000000     2.491000000    -4.092000000
H     0.985000000     1.384000000    -2.884000000
C     0.042000000     4.300000000    -2.187000000
C     1.454000000     4.781000000    -2.498000000
H     1.587000000     5.642000000    -1.839000000
H     1.496000000     5.091000000    -3.544000000
C     2.520000000     3.818000000    -2.039000000
C     3.028000000     3.976000000    -0.727000000
H     2.678000000     4.767000000    -0.070000000
C     2.863000000     2.741000000    -2.878000000
C     3.691000000     1.755000000    -2.343000000
H     3.865000000     0.884000000    -2.970000000
C     4.174000000     1.888000000    -1.033000000
O     4.764000000     0.786000000    -0.489000000
C     4.001000000    -0.009000000     0.372000000
C     4.159000000    -1.571000000     0.182000000
C     4.367000000    -2.122000000    -1.138000000
H     4.276000000    -1.478000000    -2.009000000
C     4.228000000    -2.395000000     1.352000000
H     4.114000000    -1.941000000     2.333000000
O     4.370000000     0.360000000     1.693000000
H     2.939000000     0.274000000     0.343000000
C     3.914000000     3.045000000    -0.267000000
C     4.369000000     3.157000000     1.124000000
H     4.460000000     4.214000000     1.383000000
H     5.366000000     2.725000000     1.238000000
C     3.392000000     2.504000000     2.066000000
C     3.529000000     1.182000000     2.395000000
C     2.691000000     0.510000000     3.306000000
H     2.694000000    -0.575000000     3.371000000
C     1.642000000     1.182000000     3.908000000
O     0.799000000     0.554000000     4.781000000
C    -0.469000000     0.171000000     4.227000000
H    -0.337000000     0.324000000     3.146000000
C    -0.801000000    -1.310000000     4.386000000
C    -2.102000000    -1.724000000     4.300000000
H    -2.861000000    -1.011000000     3.988000000
C     0.253000000    -2.211000000     4.713000000
H     1.287000000    -1.883000000     4.777000000
C    -0.019000000    -3.550000000     4.855000000
O     0.982000000    -4.419000000     5.482000000
C    -1.400000000    -4.013000000     4.812000000
H    -1.569000000    -5.035000000     5.141000000
C    -2.404000000    -3.081000000     4.458000000
O    -3.693000000    -3.552000000     4.551000000
C    -4.780000000    -2.751000000     4.130000000
C    -5.066000000    -2.518000000     2.814000000
H    -4.358000000    -2.920000000     2.093000000
C    -5.726000000    -2.330000000     5.078000000
H    -5.561000000    -2.672000000     6.096000000
C    -6.931000000    -1.652000000     4.675000000
H    -7.718000000    -1.342000000     5.358000000
C    -7.147000000    -1.397000000     3.284000000
H    -8.035000000    -0.873000000     2.940000000
C    -6.225000000    -1.849000000     2.356000000
O    -6.539000000    -1.897000000     0.981000000
C    -6.125000000    -0.981000000     0.090000000
C    -6.437000000    -1.131000000    -1.264000000
H    -7.048000000    -1.998000000    -1.504000000
C    -5.943000000    -0.245000000    -2.229000000
O    -6.103000000    -0.561000000    -3.584000000
C    -5.115000000    -0.397000000    -4.545000000
C    -3.966000000    -1.147000000    -4.445000000
H    -3.788000000    -1.769000000    -3.571000000
C    -5.336000000     0.405000000    -5.639000000
H    -6.146000000     1.124000000    -5.733000000
C    -4.417000000     0.451000000    -6.642000000
H    -4.612000000     0.902000000    -7.611000000
C    -3.266000000    -0.369000000    -6.589000000
H    -2.487000000    -0.431000000    -7.345000000
C    -3.050000000    -1.193000000    -5.492000000
O    -1.902000000    -1.875000000    -5.409000000
C    -0.652000000    -1.297000000    -5.352000000
C     0.503000000    -1.937000000    -5.872000000
H     0.346000000    -2.913000000    -6.325000000
C     1.714000000    -1.295000000    -5.963000000
O     2.871000000    -2.041000000    -6.372000000
C     3.893000000    -2.266000000    -5.481000000
C     3.706000000    -2.962000000    -4.350000000
H     2.689000000    -3.199000000    -4.049000000
C     5.135000000    -1.943000000    -5.964000000
H     5.309000000    -1.410000000    -6.895000000
C     6.267000000    -2.255000000    -5.186000000
H     7.237000000    -1.965000000    -5.580000000
C     6.140000000    -2.959000000    -3.989000000
H     6.949000000    -3.264000000    -3.329000000
C     4.843000000    -3.380000000    -3.642000000
O     4.643000000    -4.118000000    -2.475000000
C     4.469000000    -3.533000000    -1.264000000
C     4.511000000    -4.283000000    -0.099000000
H     4.579000000    -5.366000000    -0.168000000
C     4.409000000    -3.748000000     1.204000000
O     4.650000000    -4.566000000     2.314000000
C     4.105000000    -4.245000000     3.545000000
C     4.941000000    -3.701000000     4.497000000
H     5.984000000    -3.506000000     4.260000000
C     4.459000000    -3.468000000     5.765000000
H     5.106000000    -2.957000000     6.474000000
C     3.141000000    -3.771000000     6.149000000
H     2.874000000    -3.696000000     7.200000000
C     2.290000000    -4.297000000     5.176000000
C     2.730000000    -4.407000000     3.905000000
H     2.052000000    -4.750000000     3.128000000
O     2.378000000    -6.700000000     1.261000000
H     2.012000000    -5.999000000     0.721000000
H     3.132000000    -7.017000000     0.764000000
O    -1.525000000   -10.874000000    -0.712000000
H    -1.454000000    -9.967000000    -1.008000000
H    -1.919000000   -10.812000000     0.158000000
O    -1.987000000   -10.211000000     2.181000000
H    -2.524000000   -10.215000000     2.973000000
H    -1.557000000    -9.356000000     2.187000000
O    -2.606000000    -6.353000000     3.097000000
H    -2.175000000    -6.249000000     2.250000000
H    -1.943000000    -6.759000000     3.656000000
O     1.007000000    -5.497000000    -4.655000000
H     0.921000000    -4.893000000    -3.918000000
H     1.931000000    -5.448000000    -4.899000000
O    -1.697000000    -6.738000000    -4.356000000
H    -0.768000000    -6.549000000    -4.485000000
H    -1.993000000    -7.074000000    -5.202000000
O    -4.660000000    -8.802000000     2.192000000
H    -5.267000000    -8.558000000     1.493000000
H    -4.074000000    -8.050000000     2.275000000
O     1.607000000    -8.576000000    -1.892000000
H     0.691000000    -8.816000000    -2.035000000
H     2.102000000    -9.349000000    -2.161000000
O    -4.751000000    -4.179000000    -5.513000000
H    -5.544000000    -3.976000000    -5.018000000
H    -4.100000000    -4.396000000    -4.846000000
O     1.012000000    -6.040000000    -1.077000000
H     0.159000000    -6.101000000    -0.646000000
H     1.078000000    -6.844000000    -1.591000000
O    -5.711000000    -4.171000000    -1.153000000
H    -6.057000000    -4.564000000    -0.352000000
H    -4.761000000    -4.255000000    -1.070000000
O    -1.397000000    -8.087000000    -1.862000000
H    -1.776000000    -7.892000000    -2.719000000
H    -1.627000000    -7.331000000    -1.321000000
O    -5.456000000    -6.545000000     4.445000000
H    -4.673000000    -6.164000000     4.047000000
H    -6.142000000    -6.420000000     3.790000000
O    -0.446000000    -7.839000000     1.590000000
H    -0.745000000    -7.180000000     0.964000000
H     0.460000000    -7.595000000     1.781000000
O    -4.902000000    -7.029000000     0.075000000
H    -5.232000000    -6.458000000     0.768000000
H    -4.234000000    -6.506000000    -0.369000000
O     0.728000000    -3.504000000    -2.566000000
H     0.409000000    -2.848000000    -1.946000000
H     0.971000000    -4.251000000    -2.020000000
O    -6.352000000    -4.987000000     1.558000000
H    -6.328000000    -4.212000000     2.120000000
H    -6.969000000    -5.577000000     1.990000000
O    -3.489000000    -4.964000000    -3.358000000
H    -3.221000000    -5.134000000    -2.455000000
H    -2.852000000    -5.440000000    -3.891000000
O    -5.733000000    -6.859000000    -3.006000000
H    -5.245000000    -6.065000000    -3.224000000
H    -5.871000000    -6.803000000    -2.061000000
