201
-1233.90860
C     1.177000000    -1.837000000    -3.851000000
H     0.143000000    -1.517000000    -3.950000000
C     1.488000000    -2.842000000    -2.882000000
C     2.779000000    -3.151000000    -2.553000000
H     3.094000000    -3.943000000    -1.879000000
C     0.337000000    -3.411000000    -2.051000000
O    -0.907000000    -3.555000000    -2.797000000
H     0.148000000    -2.703000000    -1.230000000
O     0.694000000    -4.681000000    -1.429000000
C     0.292000000    -4.900000000    -0.098000000
C     1.272000000    -4.619000000     0.815000000
H     2.331000000    -4.526000000     0.585000000
C     0.948000000    -4.473000000     2.125000000
O     1.959000000    -4.022000000     2.981000000
C    -0.353000000    -4.468000000     2.607000000
C    -0.694000000    -4.014000000     4.027000000
H    -1.632000000    -4.504000000     4.299000000
C    -0.852000000    -2.487000000     4.126000000
C    -2.123000000    -1.965000000     4.118000000
H    -2.940000000    -2.668000000     3.978000000
H     0.137000000    -4.422000000     4.606000000
C    -1.401000000    -4.778000000     1.705000000
H    -2.443000000    -4.823000000     2.011000000
C    -1.075000000    -4.919000000     0.296000000
C    -2.187000000    -5.132000000    -0.740000000
H    -2.989000000    -5.666000000    -0.225000000
H    -1.781000000    -5.760000000    -1.536000000
C    -2.691000000    -3.793000000    -1.192000000
C    -3.750000000    -3.211000000    -0.549000000
H    -4.385000000    -3.706000000     0.182000000
C    -2.178000000    -3.156000000    -2.339000000
C    -2.564000000    -1.958000000    -2.716000000
H    -1.957000000    -1.485000000    -3.484000000
C    -3.682000000    -1.332000000    -2.160000000
O    -4.027000000    -0.158000000    -2.740000000
C    -3.633000000     1.044000000    -2.088000000
C    -3.134000000     2.055000000    -3.116000000
C    -2.845000000     3.352000000    -2.678000000
H    -2.893000000     3.715000000    -1.655000000
C    -2.831000000     1.748000000    -4.423000000
H    -2.774000000     0.709000000    -4.738000000
O    -4.708000000     1.420000000    -1.205000000
H    -2.784000000     0.797000000    -1.435000000
C    -4.227000000    -1.982000000    -1.058000000
C    -5.385000000    -1.280000000    -0.392000000
H    -6.041000000    -2.030000000     0.054000000
H    -6.039000000    -0.828000000    -1.140000000
C    -4.973000000    -0.220000000     0.552000000
C    -4.593000000    -0.628000000     1.867000000
H    -4.798000000    -1.626000000     2.246000000
C    -4.693000000     1.095000000     0.129000000
C    -4.233000000     2.044000000     0.975000000
H    -4.019000000     3.047000000     0.616000000
C    -3.929000000     1.673000000     2.284000000
O    -3.273000000     2.553000000     3.099000000
C    -1.837000000     2.318000000     3.026000000
C    -1.078000000     3.651000000     2.872000000
C    -1.607000000     4.767000000     2.145000000
H    -2.648000000     4.659000000     1.854000000
C     0.199000000     3.856000000     3.477000000
H     0.640000000     3.099000000     4.120000000
O    -1.478000000     1.655000000     4.222000000
H    -1.594000000     1.718000000     2.137000000
C    -4.189000000     0.331000000     2.690000000
C    -3.762000000    -0.082000000     4.046000000
H    -4.462000000    -0.865000000     4.342000000
H    -3.956000000     0.722000000     4.758000000
C    -2.329000000    -0.613000000     4.057000000
C    -1.261000000     0.230000000     4.158000000
C     0.057000000    -0.250000000     4.174000000
H     0.872000000     0.452000000     4.331000000
C     0.262000000    -1.620000000     4.226000000
O     1.546000000    -2.123000000     4.266000000
C     2.100000000    -2.538000000     2.955000000
H     1.577000000    -2.184000000     2.054000000
C     3.486000000    -1.992000000     2.761000000
C     4.589000000    -2.718000000     2.312000000
H     4.444000000    -3.791000000     2.218000000
C     3.541000000    -0.609000000     2.844000000
H     2.735000000    -0.039000000     3.299000000
C     4.709000000     0.041000000     2.539000000
O     4.788000000     1.425000000     2.551000000
C     5.776000000    -0.673000000     1.978000000
H     6.673000000    -0.202000000     1.586000000
C     5.722000000    -2.039000000     1.863000000
O     6.686000000    -2.767000000     1.270000000
C     6.427000000    -3.560000000     0.191000000
C     5.816000000    -3.026000000    -0.936000000
H     5.473000000    -1.998000000    -1.017000000
C     6.947000000    -4.859000000     0.077000000
H     7.520000000    -5.342000000     0.864000000
C     6.780000000    -5.620000000    -1.082000000
H     7.197000000    -6.622000000    -1.152000000
C     6.135000000    -5.081000000    -2.117000000
H     5.926000000    -5.707000000    -2.980000000
C     5.622000000    -3.788000000    -2.104000000
O     5.077000000    -3.193000000    -3.236000000
C     3.814000000    -2.640000000    -3.310000000
C     3.529000000    -1.634000000    -4.257000000
H     4.419000000    -1.314000000    -4.793000000
C     2.203000000    -1.171000000    -4.462000000
O     2.085000000    -0.072000000    -5.311000000
C     1.015000000     0.071000000    -6.118000000
C     0.197000000     1.193000000    -5.932000000
H     0.294000000     1.894000000    -5.107000000
C     0.725000000    -0.848000000    -7.135000000
H     1.328000000    -1.742000000    -7.270000000
C    -0.431000000    -0.753000000    -7.887000000
H    -0.641000000    -1.446000000    -8.698000000
C    -1.269000000     0.270000000    -7.641000000
H    -2.193000000     0.265000000    -8.215000000
C    -0.977000000     1.220000000    -6.685000000
O    -1.926000000     2.252000000    -6.554000000
C    -2.298000000     2.707000000    -5.300000000
C    -2.047000000     4.012000000    -4.842000000
H    -1.517000000     4.681000000    -5.516000000
C    -2.380000000     4.317000000    -3.560000000
O    -1.821000000     5.492000000    -3.098000000
C    -2.346000000     6.272000000    -2.130000000
C    -1.609000000     6.105000000    -0.888000000
H    -0.771000000     5.418000000    -0.807000000
C    -3.479000000     7.016000000    -2.222000000
H    -3.993000000     7.002000000    -3.180000000
C    -4.028000000     7.614000000    -1.109000000
H    -4.947000000     8.194000000    -1.119000000
C    -3.160000000     7.681000000    -0.004000000
H    -3.494000000     8.220000000     0.878000000
C    -2.050000000     6.869000000     0.161000000
O    -1.287000000     7.057000000     1.356000000
C    -0.818000000     5.954000000     2.049000000
C     0.447000000     6.054000000     2.642000000
H     0.934000000     7.026000000     2.643000000
C     0.902000000     5.027000000     3.396000000
O     2.117000000     5.188000000     4.048000000
C     2.927000000     4.094000000     4.320000000
C     3.188000000     3.791000000     5.638000000
H     2.785000000     4.361000000     6.471000000
C     4.048000000     2.680000000     5.960000000
H     4.320000000     2.474000000     6.992000000
C     4.583000000     1.959000000     4.911000000
H     5.214000000     1.076000000     4.974000000
C     4.283000000     2.234000000     3.573000000
C     3.451000000     3.296000000     3.283000000
H     3.160000000     3.553000000     2.267000000
O     3.681000000     5.824000000     0.344000000
H     4.387000000     6.290000000    -0.105000000
H     3.708000000     6.156000000     1.241000000
O     5.910000000     3.531000000    -0.668000000
H     5.374000000     2.870000000    -0.230000000
H     5.680000000     3.452000000    -1.594000000
O     2.175000000     7.137000000    -3.464000000
H     2.934000000     6.736000000    -3.888000000
H     2.015000000     6.591000000    -2.694000000
O     1.614000000     5.329000000    -1.412000000
H     2.217000000     4.775000000    -1.908000000
H     1.958000000     5.317000000    -0.519000000
O     8.206000000    -1.764000000    -3.474000000
H     7.597000000    -1.049000000    -3.290000000
H     8.923000000    -1.633000000    -2.854000000
O     4.169000000     2.004000000    -5.038000000
H     3.806000000     1.119000000    -5.044000000
H     4.445000000     2.144000000    -4.132000000
O     4.921000000     7.465000000    -2.522000000
H     4.786000000     7.747000000    -1.617000000
H     5.803000000     7.766000000    -2.738000000
O     1.377000000     8.072000000    -0.771000000
H     2.316000000     8.257000000    -0.779000000
H     1.309000000     7.189000000    -0.407000000
O     3.500000000     3.804000000    -7.065000000
H     3.536000000     3.039000000    -6.492000000
H     3.275000000     4.530000000    -6.482000000
O     6.692000000     6.372000000    -0.317000000
H     6.327000000     5.493000000    -0.423000000
H     7.629000000     6.263000000    -0.479000000
O     6.773000000     4.449000000    -5.525000000
H     6.100000000     4.465000000    -4.845000000
H     6.378000000     4.910000000    -6.265000000
O     7.835000000     3.365000000     1.201000000
H     7.598000000     4.165000000     1.671000000
H     7.318000000     3.399000000     0.396000000
O     1.070000000     4.489000000    -4.574000000
H     0.674000000     5.117000000    -3.971000000
H     1.765000000     4.072000000    -4.064000000
O     6.299000000     1.908000000    -6.578000000
H     5.467000000     1.888000000    -6.105000000
H     6.694000000     2.745000000    -6.332000000
O     9.306000000     1.624000000    -1.673000000
H     8.515000000     1.962000000    -1.253000000
H     9.884000000     2.383000000    -1.741000000
O     8.685000000     5.877000000    -3.586000000
H     9.343000000     5.666000000    -4.248000000
H     8.021000000     5.195000000    -3.682000000
O     5.140000000     4.961000000    -3.563000000
H     4.413000000     4.429000000    -3.238000000
H     5.165000000     5.716000000    -2.976000000
O     3.969000000     6.199000000    -5.806000000
H     4.072000000     7.123000000    -6.034000000
H     4.681000000     6.023000000    -5.190000000
O     6.281000000     0.466000000    -2.882000000
H     5.566000000     1.084000000    -2.733000000
H     6.834000000     0.892000000    -3.537000000
