201
-1249.57010
C     1.411000000    -3.831000000    -3.727000000
H     0.379000000    -3.980000000    -4.036000000
C     1.666000000    -3.833000000    -2.341000000
C     2.960000000    -3.522000000    -1.912000000
H     3.210000000    -3.602000000    -0.857000000
C     0.512000000    -4.020000000    -1.337000000
O    -0.772000000    -4.547000000    -1.871000000
H     0.271000000    -3.052000000    -0.874000000
O     0.899000000    -4.855000000    -0.219000000
C     0.601000000    -4.416000000     1.034000000
C     1.599000000    -3.908000000     1.839000000
H     2.604000000    -3.861000000     1.429000000
C     1.262000000    -3.320000000     3.053000000
O     2.284000000    -2.527000000     3.600000000
C     0.002000000    -3.333000000     3.609000000
C    -0.270000000    -2.705000000     4.900000000
H    -1.055000000    -3.209000000     5.468000000
C    -0.691000000    -1.286000000     4.730000000
C    -2.059000000    -0.907000000     4.627000000
H    -2.814000000    -1.677000000     4.759000000
H     0.622000000    -2.637000000     5.525000000
C    -0.998000000    -4.055000000     2.918000000
H    -2.007000000    -4.200000000     3.297000000
C    -0.728000000    -4.543000000     1.589000000
C    -1.755000000    -5.288000000     0.702000000
H    -2.502000000    -5.803000000     1.309000000
H    -1.254000000    -6.028000000     0.075000000
C    -2.482000000    -4.264000000    -0.203000000
C    -3.599000000    -3.577000000     0.219000000
H    -4.168000000    -3.946000000     1.068000000
C    -1.928000000    -3.972000000    -1.449000000
C    -2.614000000    -3.100000000    -2.346000000
H    -2.092000000    -2.934000000    -3.286000000
C    -3.644000000    -2.372000000    -1.891000000
O    -4.125000000    -1.367000000    -2.725000000
C    -3.716000000    -0.103000000    -2.256000000
C    -3.244000000     0.735000000    -3.413000000
C    -3.572000000     2.096000000    -3.570000000
H    -4.209000000     2.542000000    -2.811000000
C    -2.298000000     0.196000000    -4.242000000
H    -1.927000000    -0.812000000    -4.077000000
O    -4.876000000     0.516000000    -1.591000000
H    -2.951000000    -0.263000000    -1.482000000
C    -4.230000000    -2.607000000    -0.635000000
C    -5.409000000    -1.841000000    -0.040000000
H    -5.720000000    -2.455000000     0.808000000
H    -6.258000000    -1.804000000    -0.727000000
C    -4.951000000    -0.461000000     0.490000000
C    -4.808000000    -0.349000000     1.837000000
H    -5.050000000    -1.227000000     2.431000000
C    -4.818000000     0.687000000    -0.274000000
C    -4.323000000     1.895000000     0.280000000
H    -4.147000000     2.788000000    -0.315000000
C    -4.008000000     1.885000000     1.638000000
O    -3.314000000     3.027000000     2.150000000
C    -1.883000000     2.943000000     2.353000000
C    -1.180000000     4.213000000     1.899000000
C    -1.738000000     4.962000000     0.867000000
H    -2.652000000     4.701000000     0.339000000
C     0.031000000     4.626000000     2.498000000
H     0.428000000     4.078000000     3.349000000
O    -1.686000000     2.648000000     3.755000000
H    -1.506000000     2.106000000     1.747000000
C    -4.275000000     0.785000000     2.469000000
C    -3.813000000     0.791000000     3.952000000
H    -4.459000000     0.055000000     4.434000000
H    -3.879000000     1.778000000     4.415000000
C    -2.394000000     0.362000000     4.197000000
C    -1.401000000     1.354000000     4.071000000
C    -0.099000000     0.983000000     4.185000000
H     0.710000000     1.659000000     3.920000000
C     0.298000000    -0.324000000     4.503000000
O     1.632000000    -0.528000000     4.572000000
C     2.280000000    -1.127000000     3.404000000
H     1.686000000    -0.799000000     2.538000000
C     3.720000000    -0.567000000     3.136000000
C     4.746000000    -1.406000000     2.651000000
H     4.559000000    -2.476000000     2.616000000
C     3.902000000     0.821000000     3.094000000
H     3.101000000     1.532000000     3.281000000
C     5.109000000     1.393000000     2.888000000
O     5.211000000     2.813000000     2.801000000
C     6.157000000     0.558000000     2.408000000
H     7.090000000     1.043000000     2.134000000
C     5.971000000    -0.833000000     2.357000000
O     6.965000000    -1.589000000     1.872000000
C     6.696000000    -2.411000000     0.858000000
C     6.066000000    -2.075000000    -0.347000000
H     5.716000000    -1.059000000    -0.509000000
C     7.211000000    -3.729000000     0.929000000
H     7.668000000    -4.003000000     1.877000000
C     6.962000000    -4.760000000    -0.055000000
H     7.383000000    -5.748000000     0.114000000
C     6.300000000    -4.297000000    -1.247000000
H     5.990000000    -5.045000000    -1.971000000
C     5.879000000    -2.981000000    -1.388000000
O     5.171000000    -2.599000000    -2.448000000
C     3.963000000    -3.168000000    -2.834000000
C     3.629000000    -3.075000000    -4.160000000
H     4.435000000    -2.800000000    -4.837000000
C     2.408000000    -3.507000000    -4.616000000
O     2.127000000    -3.560000000    -5.989000000
C     1.176000000    -2.645000000    -6.532000000
C     1.008000000    -1.360000000    -6.014000000
H     1.746000000    -1.015000000    -5.294000000
C     0.240000000    -3.148000000    -7.441000000
H     0.356000000    -4.203000000    -7.676000000
C    -0.877000000    -2.456000000    -7.849000000
H    -1.601000000    -3.009000000    -8.441000000
C    -1.078000000    -1.225000000    -7.277000000
H    -2.043000000    -0.761000000    -7.467000000
C    -0.140000000    -0.627000000    -6.391000000
O    -0.449000000     0.539000000    -5.730000000
C    -1.642000000     0.960000000    -5.219000000
C    -1.949000000     2.271000000    -5.371000000
H    -1.292000000     2.889000000    -5.977000000
C    -2.924000000     2.892000000    -4.537000000
O    -2.967000000     4.204000000    -4.573000000
C    -3.193000000     5.112000000    -3.495000000
C    -2.240000000     5.472000000    -2.562000000
H    -1.210000000     5.125000000    -2.531000000
C    -4.473000000     5.714000000    -3.461000000
H    -5.258000000     5.463000000    -4.170000000
C    -4.734000000     6.661000000    -2.512000000
H    -5.737000000     7.080000000    -2.495000000
C    -3.830000000     7.000000000    -1.498000000
H    -4.017000000     7.773000000    -0.757000000
C    -2.609000000     6.388000000    -1.572000000
O    -1.676000000     6.808000000    -0.628000000
C    -1.059000000     6.057000000     0.363000000
C     0.198000000     6.468000000     0.892000000
H     0.794000000     7.293000000     0.510000000
C     0.631000000     5.854000000     2.084000000
O     1.821000000     6.257000000     2.698000000
C     2.591000000     5.360000000     3.435000000
C     2.533000000     5.329000000     4.844000000
H     1.841000000     5.891000000     5.466000000
C     3.333000000     4.334000000     5.543000000
H     3.246000000     4.197000000     6.617000000
C     4.176000000     3.495000000     4.841000000
H     4.761000000     2.728000000     5.342000000
C     4.371000000     3.705000000     3.459000000
C     3.509000000     4.614000000     2.739000000
H     3.540000000     4.788000000     1.666000000
O     1.156000000     3.339000000    -8.463000000
H     1.841000000     3.037000000    -9.059000000
H     0.491000000     3.720000000    -9.036000000
O     2.758000000     3.254000000    -6.253000000
H     2.062000000     2.828000000    -6.754000000
H     2.419000000     3.295000000    -5.359000000
O     7.482000000     3.774000000    -3.420000000
H     7.766000000     2.901000000    -3.150000000
H     6.530000000     3.759000000    -3.318000000
O     2.952000000     5.359000000    -3.916000000
H     3.853000000     5.062000000    -3.789000000
H     2.414000000     4.624000000    -3.622000000
O     4.406000000     1.930000000    -0.182000000
H     4.968000000     1.831000000    -0.951000000
H     4.998000000     2.222000000     0.511000000
O     4.321000000     5.022000000    -7.675000000
H     5.149000000     4.698000000    -7.320000000
H     3.685000000     4.340000000    -7.458000000
O     2.853000000     4.091000000    -0.672000000
H     3.104000000     3.207000000    -0.404000000
H     1.906000000     4.041000000    -0.802000000
O     7.078000000     2.337000000    -7.136000000
H     7.613000000     1.739000000    -7.658000000
H     6.375000000     1.788000000    -6.789000000
O     3.841000000     6.891000000    -6.020000000
H     3.929000000     6.185000000    -6.660000000
H     3.661000000     6.444000000    -5.193000000
O     8.102000000     1.337000000    -2.257000000
H     7.152000000     1.240000000    -2.326000000
H     8.452000000     0.516000000    -2.602000000
O     7.312000000     4.816000000    -6.356000000
H     7.484000000     4.596000000    -5.440000000
H     7.273000000     3.970000000    -6.802000000
O     4.598000000     1.186000000    -5.720000000
H     4.235000000     2.063000000    -5.842000000
H     4.222000000     0.883000000    -4.893000000
O     0.602000000     5.464000000    -5.768000000
H     1.167000000     5.583000000    -5.004000000
H     1.077000000     4.845000000    -6.322000000
O    -1.444000000     5.588000000    -7.355000000
H    -1.817000000     6.459000000    -7.220000000
H    -0.738000000     5.527000000    -6.712000000
O     3.321000000    -0.513000000    -8.197000000
H     3.220000000     0.007000000    -7.400000000
H     3.924000000    -0.006000000    -8.740000000
O     5.588000000     0.266000000    -2.596000000
H     4.750000000     0.633000000    -2.877000000
H     5.406000000    -0.663000000    -2.453000000
O     4.790000000     3.592000000    -2.901000000
H     4.140000000     2.967000000    -3.221000000
H     4.376000000     4.001000000    -2.141000000
O     6.172000000    -0.930000000    -5.865000000
H     5.630000000    -0.153000000    -5.730000000
H     7.004000000    -0.718000000    -5.444000000
O     3.161000000     8.115000000    -0.573000000
H     2.763000000     8.614000000    -1.286000000
H     3.654000000     7.422000000    -1.012000000
