201
-1239.93740
C     1.324000000    -4.167000000    -3.060000000
H     0.328000000    -4.130000000    -3.494000000
C     1.545000000    -4.449000000    -1.698000000
C     2.852000000    -4.401000000    -1.194000000
H     3.025000000    -4.438000000    -0.121000000
C     0.441000000    -4.360000000    -0.676000000
O    -0.784000000    -4.953000000    -1.181000000
H     0.239000000    -3.283000000    -0.584000000
O     0.831000000    -4.922000000     0.654000000
C     0.513000000    -4.228000000     1.756000000
C     1.559000000    -3.573000000     2.400000000
H     2.569000000    -3.500000000     2.006000000
C     1.315000000    -2.820000000     3.547000000
O     2.299000000    -2.014000000     4.015000000
C    -0.002000000    -2.708000000     4.020000000
C    -0.332000000    -1.943000000     5.268000000
H    -1.160000000    -2.304000000     5.881000000
C    -0.688000000    -0.497000000     4.959000000
C    -2.028000000    -0.196000000     4.708000000
H    -2.804000000    -0.922000000     4.938000000
H     0.528000000    -2.018000000     5.937000000
C    -1.026000000    -3.452000000     3.379000000
H    -2.054000000    -3.312000000     3.703000000
C    -0.762000000    -4.264000000     2.320000000
C    -1.895000000    -5.002000000     1.576000000
H    -2.713000000    -5.281000000     2.243000000
H    -1.536000000    -5.923000000     1.111000000
C    -2.471000000    -4.183000000     0.465000000
C    -3.606000000    -3.342000000     0.707000000
H    -4.034000000    -3.295000000     1.705000000
C    -1.976000000    -4.290000000    -0.848000000
C    -2.479000000    -3.435000000    -1.832000000
H    -2.023000000    -3.489000000    -2.817000000
C    -3.588000000    -2.626000000    -1.593000000
O    -3.988000000    -1.713000000    -2.593000000
C    -3.554000000    -0.328000000    -2.379000000
C    -3.119000000     0.320000000    -3.674000000
C    -3.498000000     1.577000000    -4.040000000
H    -4.245000000     2.157000000    -3.505000000
C    -2.057000000    -0.279000000    -4.333000000
H    -1.584000000    -1.194000000    -3.986000000
O    -4.683000000     0.351000000    -1.762000000
H    -2.684000000    -0.308000000    -1.706000000
C    -4.206000000    -2.600000000    -0.338000000
C    -5.427000000    -1.772000000     0.044000000
H    -6.095000000    -2.329000000     0.705000000
H    -6.050000000    -1.641000000    -0.843000000
C    -4.966000000    -0.337000000     0.577000000
C    -4.744000000    -0.059000000     1.964000000
H    -4.964000000    -0.782000000     2.746000000
C    -4.651000000     0.629000000    -0.425000000
C    -4.110000000     1.824000000     0.008000000
H    -3.692000000     2.626000000    -0.594000000
C    -3.884000000     2.034000000     1.383000000
O    -3.183000000     3.168000000     1.626000000
C    -1.742000000     3.068000000     1.764000000
C    -1.017000000     4.258000000     1.060000000
C    -1.727000000     4.965000000     0.046000000
H    -2.770000000     4.769000000    -0.188000000
C     0.332000000     4.448000000     1.353000000
H     0.842000000     3.926000000     2.158000000
O    -1.394000000     3.118000000     3.168000000
H    -1.281000000     2.154000000     1.363000000
C    -4.140000000     1.119000000     2.398000000
C    -3.781000000     1.340000000     3.869000000
H    -4.449000000     0.773000000     4.521000000
H    -4.027000000     2.357000000     4.181000000
C    -2.312000000     1.072000000     4.135000000
C    -1.271000000     1.914000000     3.824000000
C     0.067000000     1.644000000     4.152000000
H     0.854000000     2.371000000     3.969000000
C     0.312000000     0.424000000     4.692000000
O     1.673000000     0.135000000     4.750000000
C     2.191000000    -0.637000000     3.634000000
H     1.429000000    -0.552000000     2.846000000
C     3.419000000     0.043000000     3.149000000
C     4.173000000    -0.608000000     2.186000000
H     3.783000000    -1.483000000     1.673000000
C     3.801000000     1.311000000     3.538000000
H     3.192000000     1.819000000     4.282000000
C     5.012000000     1.853000000     3.066000000
O     5.368000000     3.186000000     3.375000000
C     5.779000000     1.103000000     2.224000000
H     6.711000000     1.492000000     1.823000000
C     5.412000000    -0.140000000     1.814000000
O     6.243000000    -0.884000000     0.965000000
C     6.351000000    -2.194000000     0.735000000
C     5.587000000    -2.769000000    -0.294000000
H     4.973000000    -2.052000000    -0.833000000
C     7.139000000    -3.064000000     1.494000000
H     7.699000000    -2.758000000     2.374000000
C     7.249000000    -4.436000000     1.209000000
H     7.843000000    -5.088000000     1.844000000
C     6.601000000    -4.932000000    -0.003000000
H     6.701000000    -5.968000000    -0.317000000
C     5.727000000    -4.134000000    -0.688000000
O     5.177000000    -4.633000000    -1.855000000
C     3.885000000    -4.332000000    -2.180000000
C     3.688000000    -4.321000000    -3.489000000
H     4.520000000    -4.388000000    -4.186000000
C     2.409000000    -4.104000000    -3.936000000
O     2.211000000    -3.997000000    -5.312000000
C     1.117000000    -3.367000000    -5.864000000
C     0.958000000    -2.013000000    -5.760000000
H     1.752000000    -1.474000000    -5.249000000
C     0.144000000    -4.122000000    -6.437000000
H     0.282000000    -5.195000000    -6.336000000
C    -1.017000000    -3.613000000    -6.924000000
H    -1.793000000    -4.232000000    -7.368000000
C    -1.210000000    -2.215000000    -6.804000000
H    -2.099000000    -1.726000000    -7.194000000
C    -0.205000000    -1.412000000    -6.222000000
O    -0.276000000    -0.072000000    -6.008000000
C    -1.311000000     0.471000000    -5.281000000
C    -1.738000000     1.800000000    -5.593000000
H    -1.291000000     2.314000000    -6.440000000
C    -2.804000000     2.360000000    -4.951000000
O    -3.225000000     3.684000000    -5.207000000
C    -3.440000000     4.591000000    -4.268000000
C    -2.405000000     5.148000000    -3.492000000
H    -1.392000000     4.807000000    -3.693000000
C    -4.733000000     5.061000000    -4.165000000
H    -5.500000000     4.784000000    -4.883000000
C    -4.949000000     6.174000000    -3.301000000
H    -5.945000000     6.607000000    -3.281000000
C    -3.965000000     6.544000000    -2.300000000
H    -4.289000000     7.275000000    -1.564000000
C    -2.674000000     5.996000000    -2.386000000
O    -1.645000000     6.659000000    -1.641000000
C    -1.009000000     5.935000000    -0.626000000
C     0.294000000     6.163000000    -0.323000000
H     0.787000000     7.029000000    -0.757000000
C     0.995000000     5.480000000     0.669000000
O     2.301000000     5.854000000     0.952000000
C     2.937000000     5.542000000     2.120000000
C     2.769000000     6.354000000     3.225000000
H     2.001000000     7.122000000     3.200000000
C     3.467000000     6.084000000     4.429000000
H     3.277000000     6.634000000     5.347000000
C     4.328000000     4.966000000     4.548000000
H     4.875000000     4.770000000     5.467000000
C     4.531000000     4.245000000     3.397000000
C     3.762000000     4.418000000     2.210000000
H     3.842000000     3.797000000     1.321000000
O     6.536000000    -2.387000000    -3.337000000
H     5.659000000    -2.068000000    -3.549000000
H     6.804000000    -2.884000000    -4.109000000
O     2.462000000     4.524000000    -6.547000000
H     3.060000000     4.014000000    -6.000000000
H     1.964000000     3.867000000    -7.034000000
O     6.071000000     4.197000000    -8.252000000
H     5.226000000     3.748000000    -8.229000000
H     6.072000000     4.746000000    -7.467000000
O     3.196000000     0.585000000    -7.365000000
H     2.258000000     0.503000000    -7.192000000
H     3.488000000     1.280000000    -6.775000000
O     4.206000000    -1.251000000    -8.934000000
H     4.988000000    -1.493000000    -8.437000000
H     3.797000000    -0.558000000    -8.416000000
O     4.482000000     2.240000000    -5.510000000
H     4.001000000     2.218000000    -4.683000000
H     4.898000000     3.102000000    -5.521000000
O     3.053000000     7.174000000    -7.207000000
H     2.700000000     6.304000000    -7.016000000
H     2.389000000     7.585000000    -7.760000000
O     3.857000000    -0.698000000    -4.299000000
H     3.788000000    -0.270000000    -5.153000000
H     4.143000000    -0.003000000    -3.706000000
O     6.750000000     0.869000000    -1.733000000
H     5.875000000     1.114000000    -2.033000000
H     6.596000000     0.337000000    -0.952000000
O     7.969000000     3.587000000     1.120000000
H     7.305000000     3.494000000     1.804000000
H     7.869000000     4.487000000     0.810000000
O     7.782000000     2.488000000    -5.211000000
H     6.995000000     2.517000000    -4.667000000
H     8.351000000     1.853000000    -4.776000000
O     6.100000000    -0.618000000    -6.358000000
H     5.930000000    -0.131000000    -5.551000000
H     6.131000000     0.052000000    -7.040000000
O     2.345000000     5.317000000    -3.938000000
H     1.930000000     5.257000000    -4.798000000
H     2.642000000     4.426000000    -3.752000000
O     5.174000000     5.024000000    -5.308000000
H     4.573000000     5.749000000    -5.138000000
H     5.170000000     4.515000000    -4.497000000
O     8.593000000     0.203000000    -3.937000000
H     8.116000000     0.213000000    -3.108000000
H     8.812000000    -0.718000000    -4.077000000
O     6.071000000     6.527000000    -2.108000000
H     6.046000000     5.576000000    -2.008000000
H     5.158000000     6.777000000    -2.248000000
O     3.416000000     7.178000000    -2.480000000
H     3.132000000     6.269000000    -2.581000000
H     3.135000000     7.607000000    -3.288000000
O     8.928000000     5.412000000    -4.192000000
H     8.675000000     6.214000000    -3.734000000
H     8.191000000     5.227000000    -4.775000000
O     5.811000000     3.790000000    -2.418000000
H     5.250000000     3.015000000    -2.414000000
H     6.511000000     3.582000000    -1.800000000
