201
-1239.79477
C     0.576000000    -4.302000000    -0.626000000
H    -0.489000000    -4.092000000    -0.689000000
C     1.275000000    -4.058000000     0.547000000
C     2.597000000    -4.459000000     0.608000000
H     3.269000000    -4.263000000     1.441000000
C     0.551000000    -3.595000000     1.819000000
O    -0.632000000    -4.417000000     2.099000000
H     0.374000000    -2.511000000     1.752000000
O     1.356000000    -3.782000000     3.040000000
C     1.549000000    -2.604000000     3.662000000
C     2.691000000    -1.843000000     3.451000000
H     3.498000000    -2.226000000     2.832000000
C     2.705000000    -0.594000000     3.956000000
O     3.679000000     0.288000000     3.460000000
C     1.670000000    -0.134000000     4.754000000
C     1.626000000     1.313000000     5.226000000
H     1.049000000     1.285000000     6.152000000
C     1.055000000     2.291000000     4.216000000
C    -0.292000000     2.658000000     4.288000000
H    -0.840000000     2.166000000     5.088000000
H     2.614000000     1.621000000     5.577000000
C     0.576000000    -0.950000000     5.048000000
H    -0.224000000    -0.583000000     5.686000000
C     0.470000000    -2.196000000     4.498000000
C    -0.713000000    -3.071000000     4.732000000
H    -1.075000000    -2.830000000     5.734000000
H    -0.445000000    -4.119000000     4.878000000
C    -1.768000000    -2.928000000     3.689000000
C    -2.797000000    -1.941000000     3.819000000
H    -2.822000000    -1.318000000     4.709000000
C    -1.708000000    -3.624000000     2.455000000
C    -2.642000000    -3.345000000     1.460000000
H    -2.509000000    -3.811000000     0.486000000
C    -3.705000000    -2.519000000     1.689000000
O    -4.498000000    -2.260000000     0.588000000
C    -4.255000000    -1.085000000    -0.310000000
C    -4.461000000    -1.328000000    -1.787000000
C    -4.616000000    -0.304000000    -2.748000000
H    -4.636000000     0.711000000    -2.359000000
C    -4.242000000    -2.621000000    -2.219000000
H    -4.078000000    -3.454000000    -1.539000000
O    -5.131000000    -0.030000000     0.207000000
H    -3.232000000    -0.708000000    -0.171000000
C    -3.748000000    -1.767000000     2.851000000
C    -4.776000000    -0.688000000     3.044000000
H    -5.234000000    -0.562000000     4.027000000
H    -5.661000000    -1.029000000     2.503000000
C    -4.272000000     0.633000000     2.449000000
C    -3.477000000     1.506000000     3.173000000
H    -3.349000000     1.199000000     4.208000000
C    -4.501000000     0.865000000     1.067000000
C    -4.060000000     2.011000000     0.507000000
H    -4.351000000     2.249000000    -0.513000000
C    -3.328000000     2.940000000     1.228000000
O    -2.762000000     4.002000000     0.506000000
C    -1.336000000     3.963000000     0.176000000
C    -0.992000000     4.197000000    -1.283000000
C    -1.979000000     4.397000000    -2.192000000
H    -3.048000000     4.321000000    -2.007000000
C     0.361000000     4.255000000    -1.661000000
H     1.228000000     3.915000000    -1.100000000
O    -0.606000000     4.720000000     1.195000000
H    -1.069000000     2.928000000     0.432000000
C    -3.043000000     2.669000000     2.573000000
C    -2.362000000     3.770000000     3.433000000
H    -2.673000000     3.703000000     4.477000000
H    -2.656000000     4.752000000     3.058000000
C    -0.845000000     3.436000000     3.296000000
C    -0.073000000     3.943000000     2.223000000
C     1.307000000     3.742000000     2.244000000
H     1.921000000     4.223000000     1.487000000
C     1.875000000     2.893000000     3.193000000
O     3.203000000     2.638000000     2.997000000
C     3.410000000     1.370000000     2.431000000
H     2.469000000     1.041000000     1.965000000
C     4.507000000     1.401000000     1.306000000
C     5.078000000     0.245000000     0.896000000
H     4.776000000    -0.707000000     1.326000000
C     4.928000000     2.651000000     0.676000000
H     4.472000000     3.591000000     0.976000000
C     5.784000000     2.705000000    -0.367000000
O     6.015000000     3.896000000    -1.023000000
C     6.335000000     1.470000000    -0.779000000
H     7.090000000     1.494000000    -1.560000000
C     6.028000000     0.232000000    -0.175000000
O     6.650000000    -0.937000000    -0.659000000
C     6.552000000    -2.145000000    -0.032000000
C     5.625000000    -3.087000000    -0.518000000
H     5.067000000    -2.934000000    -1.438000000
C     7.236000000    -2.488000000     1.143000000
H     7.858000000    -1.780000000     1.685000000
C     7.117000000    -3.800000000     1.630000000
H     7.865000000    -4.100000000     2.359000000
C     6.236000000    -4.725000000     1.105000000
H     6.171000000    -5.758000000     1.437000000
C     5.444000000    -4.380000000     0.074000000
O     4.528000000    -5.260000000    -0.501000000
C     3.197000000    -4.921000000    -0.579000000
C     2.477000000    -5.064000000    -1.748000000
H     2.984000000    -5.355000000    -2.664000000
C     1.166000000    -4.659000000    -1.809000000
O     0.461000000    -4.703000000    -3.020000000
C    -0.746000000    -5.234000000    -3.035000000
C    -1.833000000    -4.462000000    -3.393000000
H    -1.653000000    -3.409000000    -3.593000000
C    -0.841000000    -6.625000000    -2.882000000
H     0.002000000    -7.259000000    -2.617000000
C    -2.081000000    -7.165000000    -3.006000000
H    -2.112000000    -8.252000000    -2.978000000
C    -3.185000000    -6.368000000    -3.332000000
H    -4.091000000    -6.830000000    -3.715000000
C    -3.078000000    -4.997000000    -3.421000000
O    -4.132000000    -4.224000000    -3.889000000
C    -4.293000000    -2.941000000    -3.487000000
C    -4.385000000    -1.977000000    -4.457000000
H    -4.497000000    -2.284000000    -5.493000000
C    -4.559000000    -0.617000000    -4.108000000
O    -4.805000000     0.351000000    -5.094000000
C    -4.907000000     1.697000000    -4.858000000
C    -3.749000000     2.543000000    -4.841000000
H    -2.793000000     2.029000000    -4.914000000
C    -6.123000000     2.329000000    -4.636000000
H    -7.049000000     1.760000000    -4.642000000
C    -6.155000000     3.715000000    -4.361000000
H    -7.130000000     4.139000000    -4.139000000
C    -4.984000000     4.471000000    -4.303000000
H    -5.026000000     5.517000000    -4.013000000
C    -3.795000000     3.854000000    -4.538000000
O    -2.623000000     4.577000000    -4.485000000
C    -1.640000000     4.518000000    -3.563000000
C    -0.347000000     4.599000000    -3.965000000
H    -0.085000000     4.552000000    -5.019000000
C     0.713000000     4.404000000    -3.058000000
O     1.963000000     4.200000000    -3.555000000
C     3.013000000     4.730000000    -2.912000000
C     3.204000000     6.116000000    -3.034000000
H     2.509000000     6.686000000    -3.646000000
C     4.285000000     6.741000000    -2.412000000
H     4.360000000     7.822000000    -2.324000000
C     5.173000000     5.958000000    -1.763000000
H     6.024000000     6.353000000    -1.213000000
C     5.057000000     4.595000000    -1.727000000
C     3.927000000     3.946000000    -2.214000000
H     3.838000000     2.863000000    -2.223000000
O     2.924000000    -5.409000000    -6.927000000
H     3.559000000    -5.485000000    -6.215000000
H     2.097000000    -5.210000000    -6.490000000
O    -0.774000000    -1.648000000    -5.518000000
H    -0.163000000    -0.913000000    -5.469000000
H    -0.226000000    -2.424000000    -5.407000000
O     4.206000000    -2.059000000    -5.372000000
H     3.821000000    -1.237000000    -5.067000000
H     4.567000000    -1.849000000    -6.234000000
O     3.308000000     1.836000000    -5.939000000
H     4.220000000     1.932000000    -6.210000000
H     3.322000000     1.125000000    -5.298000000
O     5.810000000    -3.764000000    -3.602000000
H     5.419000000    -4.567000000    -3.947000000
H     5.458000000    -3.068000000    -4.158000000
O     5.596000000    -0.168000000    -3.285000000
H     4.715000000    -0.132000000    -3.658000000
H     5.481000000    -0.602000000    -2.440000000
O    -2.714000000    -0.176000000    -6.821000000
H    -2.235000000    -0.809000000    -6.286000000
H    -3.485000000     0.045000000    -6.299000000
O     7.360000000     1.460000000    -4.293000000
H     6.753000000     0.815000000    -3.930000000
H     8.228000000     1.095000000    -4.122000000
O     6.313000000    -0.657000000    -6.731000000
H     6.382000000    -0.177000000    -7.556000000
H     6.116000000     0.015000000    -6.078000000
O    -0.045000000     2.056000000    -6.226000000
H     0.300000000     1.300000000    -5.752000000
H     0.650000000     2.712000000    -6.168000000
O    -0.406000000     0.273000000    -9.568000000
H     0.194000000     0.362000000    -8.827000000
H    -0.620000000     1.174000000    -9.812000000
O    -2.262000000     2.699000000    -7.763000000
H    -1.403000000     2.915000000    -8.125000000
H    -2.184000000     1.786000000    -7.486000000
O     1.945000000     4.103000000    -6.817000000
H     2.585000000     4.787000000    -7.012000000
H     2.472000000     3.320000000    -6.657000000
O     5.588000000     1.969000000    -7.846000000
H     6.169000000     2.725000000    -7.935000000
H     5.018000000     2.013000000    -8.614000000
O     3.610000000    -1.615000000    -8.794000000
H     2.706000000    -1.908000000    -8.686000000
H     4.125000000    -2.422000000    -8.804000000
O     2.712000000     0.859000000    -8.651000000
H     3.099000000    -0.008000000    -8.766000000
H     2.882000000     1.077000000    -7.734000000
O     1.061000000    -2.439000000    -7.969000000
H     0.104000000    -2.413000000    -7.981000000
H     1.290000000    -2.399000000    -7.041000000
O     0.246000000     3.626000000    -8.961000000
H     0.951000000     3.141000000    -8.532000000
H     0.501000000     4.545000000    -8.876000000
O     1.500000000    -3.208000000    -5.247000000
H     2.392000000    -2.882000000    -5.368000000
H     1.368000000    -3.198000000    -4.299000000
