201
-1236.72668
C     0.492000000    -5.771000000    -0.565000000
H    -0.580000000    -5.807000000    -0.388000000
C     1.287000000    -4.915000000     0.245000000
C     2.560000000    -4.648000000    -0.194000000
H     3.212000000    -3.922000000     0.285000000
C     0.601000000    -4.191000000     1.392000000
O    -0.590000000    -4.803000000     1.895000000
H     0.274000000    -3.206000000     1.026000000
O     1.497000000    -4.057000000     2.543000000
C     1.460000000    -2.835000000     3.134000000
C     2.550000000    -2.043000000     2.979000000
H     3.307000000    -2.446000000     2.311000000
C     2.632000000    -0.769000000     3.503000000
O     3.732000000    -0.025000000     3.073000000
C     1.694000000    -0.329000000     4.421000000
C     1.820000000     1.045000000     5.148000000
H     1.363000000     0.953000000     6.136000000
C     1.110000000     2.203000000     4.407000000
C    -0.282000000     2.373000000     4.468000000
H    -0.774000000     1.806000000     5.254000000
H     2.894000000     1.217000000     5.239000000
C     0.621000000    -1.185000000     4.708000000
H    -0.199000000    -0.873000000     5.350000000
C     0.490000000    -2.463000000     4.097000000
C    -0.774000000    -3.335000000     4.437000000
H    -1.209000000    -3.137000000     5.419000000
H    -0.456000000    -4.376000000     4.521000000
C    -1.813000000    -3.233000000     3.287000000
C    -2.820000000    -2.251000000     3.422000000
H    -2.803000000    -1.601000000     4.293000000
C    -1.661000000    -3.945000000     2.130000000
C    -2.591000000    -3.722000000     1.109000000
H    -2.427000000    -4.310000000     0.210000000
C    -3.583000000    -2.770000000     1.233000000
O    -4.391000000    -2.468000000     0.186000000
C    -4.035000000    -1.292000000    -0.528000000
C    -3.932000000    -1.462000000    -2.094000000
C    -3.990000000    -0.355000000    -2.894000000
H    -4.294000000     0.598000000    -2.470000000
C    -3.428000000    -2.647000000    -2.530000000
H    -3.115000000    -3.458000000    -1.878000000
O    -4.972000000    -0.193000000    -0.192000000
H    -3.006000000    -1.071000000    -0.209000000
C    -3.690000000    -2.004000000     2.405000000
C    -4.844000000    -0.985000000     2.581000000
H    -5.200000000    -0.967000000     3.613000000
H    -5.708000000    -1.416000000     2.071000000
C    -4.400000000     0.367000000     2.142000000
C    -3.708000000     1.243000000     3.030000000
H    -3.520000000     0.906000000     4.046000000
C    -4.578000000     0.718000000     0.806000000
C    -4.039000000     1.910000000     0.315000000
H    -4.039000000     2.136000000    -0.748000000
C    -3.391000000     2.802000000     1.256000000
O    -2.769000000     3.924000000     0.724000000
C    -1.316000000     4.023000000     0.514000000
C    -0.972000000     4.703000000    -0.808000000
C    -1.738000000     4.543000000    -1.907000000
H    -2.668000000     3.981000000    -1.873000000
C     0.193000000     5.505000000    -0.910000000
H     0.877000000     5.620000000    -0.073000000
O    -0.701000000     4.717000000     1.630000000
H    -0.957000000     2.987000000     0.600000000
C    -3.211000000     2.483000000     2.624000000
C    -2.503000000     3.364000000     3.720000000
H    -2.781000000     3.067000000     4.733000000
H    -2.920000000     4.366000000     3.603000000
C    -0.985000000     3.266000000     3.637000000
C    -0.172000000     3.936000000     2.681000000
C     1.192000000     3.747000000     2.626000000
H     1.696000000     4.160000000     1.756000000
C     1.855000000     2.877000000     3.441000000
O     3.114000000     2.380000000     3.068000000
C     3.320000000     1.166000000     2.242000000
H     2.412000000     0.797000000     1.742000000
C     4.376000000     1.489000000     1.190000000
C     4.850000000     0.458000000     0.433000000
H     4.567000000    -0.560000000     0.687000000
C     4.584000000     2.798000000     0.684000000
H     4.079000000     3.681000000     1.068000000
C     5.505000000     3.003000000    -0.328000000
O     5.655000000     4.227000000    -0.816000000
C     6.084000000     1.962000000    -1.012000000
H     6.717000000     2.106000000    -1.884000000
C     5.779000000     0.661000000    -0.614000000
O     6.159000000    -0.367000000    -1.479000000
C     6.045000000    -1.701000000    -1.025000000
C     5.159000000    -2.562000000    -1.552000000
H     4.478000000    -2.272000000    -2.348000000
C     6.835000000    -2.141000000     0.019000000
H     7.606000000    -1.543000000     0.498000000
C     6.769000000    -3.464000000     0.493000000
H     7.322000000    -3.814000000     1.361000000
C     5.952000000    -4.396000000    -0.213000000
H     6.024000000    -5.454000000     0.026000000
C     5.158000000    -3.896000000    -1.300000000
O     4.229000000    -4.778000000    -1.871000000
C     3.086000000    -5.309000000    -1.271000000
C     2.372000000    -6.228000000    -1.975000000
H     2.770000000    -6.645000000    -2.896000000
C     1.063000000    -6.424000000    -1.658000000
O     0.262000000    -7.147000000    -2.475000000
C    -1.035000000    -6.765000000    -2.753000000
C    -1.164000000    -5.641000000    -3.559000000
H    -0.293000000    -5.078000000    -3.884000000
C    -2.069000000    -7.508000000    -2.249000000
H    -1.888000000    -8.282000000    -1.507000000
C    -3.344000000    -7.113000000    -2.567000000
H    -4.162000000    -7.733000000    -2.208000000
C    -3.550000000    -5.971000000    -3.278000000
H    -4.577000000    -5.783000000    -3.581000000
C    -2.446000000    -5.202000000    -3.718000000
O    -2.630000000    -3.981000000    -4.464000000
C    -3.222000000    -2.852000000    -3.880000000
C    -3.508000000    -1.781000000    -4.747000000
H    -3.101000000    -1.833000000    -5.754000000
C    -4.030000000    -0.548000000    -4.268000000
O    -4.081000000     0.531000000    -5.195000000
C    -4.270000000     1.821000000    -4.708000000
C    -3.215000000     2.711000000    -4.792000000
H    -2.227000000     2.487000000    -5.187000000
C    -5.552000000     2.267000000    -4.372000000
H    -6.401000000     1.591000000    -4.439000000
C    -5.772000000     3.542000000    -3.830000000
H    -6.727000000     3.893000000    -3.446000000
C    -4.608000000     4.332000000    -3.696000000
H    -4.640000000     5.267000000    -3.144000000
C    -3.316000000     3.972000000    -4.316000000
O    -2.233000000     4.886000000    -4.276000000
C    -1.370000000     5.105000000    -3.173000000
C    -0.237000000     5.875000000    -3.296000000
H    -0.012000000     6.354000000    -4.246000000
C     0.556000000     6.043000000    -2.168000000
O     1.800000000     6.625000000    -2.460000000
C     2.894000000     6.514000000    -1.569000000
C     3.089000000     7.562000000    -0.664000000
H     2.429000000     8.424000000    -0.632000000
C     4.243000000     7.514000000     0.171000000
H     4.455000000     8.341000000     0.843000000
C     5.016000000     6.343000000     0.124000000
H     5.943000000     6.379000000     0.691000000
C     4.802000000     5.295000000    -0.755000000
C     3.699000000     5.387000000    -1.590000000
H     3.487000000     4.752000000    -2.447000000
O    -0.880000000    -2.903000000    -8.036000000
H    -0.212000000    -3.200000000    -7.418000000
H    -1.365000000    -2.230000000    -7.558000000
O     0.801000000    -3.405000000    -6.076000000
H     1.413000000    -4.139000000    -6.141000000
H     0.927000000    -3.066000000    -5.189000000
O     3.326000000    -1.676000000    -5.301000000
H     3.009000000    -0.802000000    -5.074000000
H     3.267000000    -1.712000000    -6.255000000
O     5.000000000     4.509000000    -5.370000000
H     4.045000000     4.569000000    -5.328000000
H     5.199000000     3.630000000    -5.048000000
O     5.264000000    -3.667000000    -4.411000000
H     4.413000000    -3.299000000    -4.652000000
H     5.054000000    -4.505000000    -3.999000000
O     5.422000000     1.943000000    -4.755000000
H     4.577000000     1.777000000    -4.338000000
H     5.879000000     1.103000000    -4.715000000
O    -1.145000000    -0.262000000    -7.135000000
H    -1.680000000     0.179000000    -6.476000000
H    -0.243000000    -0.072000000    -6.878000000
O     5.344000000     2.021000000    -7.599000000
H     5.399000000     2.159000000    -6.653000000
H     5.774000000     1.178000000    -7.744000000
O     2.508000000     2.219000000   -10.676000000
H     2.437000000     2.409000000    -9.740000000
H     3.055000000     2.924000000   -11.022000000
O    -0.724000000    -0.436000000    -9.928000000
H    -0.790000000    -0.742000000    -9.023000000
H    -1.082000000     0.451000000    -9.908000000
O     6.393000000    -0.916000000    -4.759000000
H     6.641000000    -1.171000000    -5.648000000
H     5.793000000    -1.604000000    -4.471000000
O    -0.131000000     3.059000000    -7.406000000
H     0.254000000     2.654000000    -6.628000000
H     0.448000000     2.800000000    -8.122000000
O    -2.483000000     4.425000000    -7.355000000
H    -2.342000000     5.216000000    -6.835000000
H    -1.650000000     3.955000000    -7.308000000
O     2.403000000     4.218000000    -5.161000000
H     2.286000000     4.686000000    -5.988000000
H     1.743000000     3.525000000    -5.183000000
O    -1.901000000     1.871000000    -9.337000000
H    -1.582000000     2.311000000    -8.549000000
H    -1.795000000     2.520000000   -10.033000000
O     1.413000000     0.511000000    -7.265000000
H     1.735000000     1.215000000    -7.828000000
H     1.724000000     0.742000000    -6.390000000
O     2.478000000    -1.898000000    -8.144000000
H     1.912000000    -2.463000000    -7.618000000
H     2.194000000    -1.009000000    -7.933000000
O     2.449000000     5.618000000    -7.520000000
H     2.472000000     5.968000000    -8.411000000
H     1.876000000     6.218000000    -7.042000000
O     2.717000000     2.733000000    -8.136000000
H     2.658000000     3.687000000    -8.193000000
H     3.593000000     2.568000000    -7.785000000
