201
-1237.91417
C    -0.914000000    -5.368000000     0.476000000
H    -1.984000000    -5.305000000     0.658000000
C    -0.011000000    -4.655000000     1.261000000
C     1.347000000    -4.881000000     1.024000000
H     2.073000000    -4.503000000     1.739000000
C    -0.481000000    -3.525000000     2.288000000
O    -1.803000000    -3.738000000     2.756000000
H    -0.480000000    -2.587000000     1.713000000
O     0.423000000    -3.399000000     3.381000000
C     0.880000000    -2.240000000     3.883000000
C     2.162000000    -1.866000000     3.567000000
H     2.831000000    -2.511000000     3.002000000
C     2.679000000    -0.646000000     3.959000000
O     3.865000000    -0.222000000     3.336000000
C     1.819000000     0.199000000     4.633000000
C     2.111000000     1.676000000     4.830000000
H     1.513000000     2.072000000     5.653000000
C     1.804000000     2.570000000     3.650000000
C     0.594000000     3.251000000     3.653000000
H    -0.048000000     3.195000000     4.529000000
H     3.160000000     1.725000000     5.131000000
C     0.493000000    -0.158000000     5.017000000
H    -0.236000000     0.479000000     5.511000000
C     0.027000000    -1.482000000     4.703000000
C    -1.424000000    -1.913000000     4.999000000
H    -1.687000000    -1.558000000     5.998000000
H    -1.332000000    -2.990000000     5.155000000
C    -2.420000000    -1.664000000     3.912000000
C    -3.103000000    -0.475000000     3.864000000
H    -2.954000000     0.236000000     4.672000000
C    -2.667000000    -2.684000000     2.943000000
C    -3.597000000    -2.483000000     1.886000000
H    -3.756000000    -3.330000000     1.224000000
C    -4.166000000    -1.220000000     1.830000000
O    -4.864000000    -0.862000000     0.783000000
C    -4.255000000    -0.031000000    -0.167000000
C    -4.223000000    -0.444000000    -1.628000000
C    -4.190000000     0.583000000    -2.646000000
H    -4.259000000     1.609000000    -2.292000000
C    -4.325000000    -1.803000000    -1.943000000
H    -4.363000000    -2.549000000    -1.153000000
O    -4.812000000     1.333000000    -0.006000000
H    -3.181000000    -0.073000000     0.063000000
C    -3.995000000    -0.272000000     2.837000000
C    -4.682000000     1.103000000     2.852000000
H    -4.836000000     1.497000000     3.859000000
H    -5.710000000     1.047000000     2.490000000
C    -3.902000000     2.129000000     2.045000000
C    -3.057000000     2.997000000     2.697000000
H    -2.971000000     2.770000000     3.756000000
C    -4.079000000     2.194000000     0.741000000
C    -3.310000000     3.086000000    -0.038000000
H    -3.469000000     3.071000000    -1.114000000
C    -2.467000000     3.996000000     0.671000000
O    -1.626000000     4.799000000    -0.107000000
C    -0.299000000     4.277000000    -0.444000000
C     0.057000000     4.424000000    -1.916000000
C    -0.916000000     4.801000000    -2.825000000
H    -1.897000000     5.051000000    -2.427000000
C     1.316000000     4.028000000    -2.369000000
H     1.990000000     3.580000000    -1.643000000
O     0.725000000     4.848000000     0.354000000
H    -0.428000000     3.239000000    -0.102000000
C    -2.281000000     3.938000000     2.026000000
C    -1.166000000     4.750000000     2.675000000
H    -1.351000000     5.025000000     3.716000000
H    -0.984000000     5.709000000     2.186000000
C     0.195000000     4.041000000     2.534000000
C     1.097000000     4.176000000     1.468000000
C     2.381000000     3.567000000     1.492000000
H     3.109000000     3.720000000     0.700000000
C     2.772000000     2.797000000     2.610000000
O     3.895000000     1.994000000     2.480000000
C     3.711000000     0.578000000     2.121000000
H     2.718000000     0.493000000     1.657000000
C     4.710000000     0.112000000     1.068000000
C     5.123000000    -1.180000000     0.926000000
H     4.681000000    -1.878000000     1.632000000
C     5.095000000     0.997000000     0.035000000
H     4.709000000     2.013000000     0.071000000
C     6.026000000     0.629000000    -0.957000000
O     6.614000000     1.565000000    -1.877000000
C     6.486000000    -0.669000000    -0.994000000
H     7.291000000    -1.000000000    -1.646000000
C     6.022000000    -1.532000000    -0.016000000
O     6.584000000    -2.814000000    -0.052000000
C     5.985000000    -3.944000000     0.434000000
C     4.816000000    -4.361000000    -0.145000000
H     4.338000000    -3.843000000    -0.973000000
C     6.582000000    -4.583000000     1.563000000
H     7.526000000    -4.186000000     1.928000000
C     5.847000000    -5.634000000     2.122000000
H     6.226000000    -6.128000000     3.013000000
C     4.715000000    -6.118000000     1.467000000
H     4.131000000    -6.963000000     1.824000000
C     4.138000000    -5.466000000     0.367000000
O     3.091000000    -6.035000000    -0.298000000
C     1.799000000    -5.670000000    -0.046000000
C     0.858000000    -6.293000000    -0.862000000
H     1.159000000    -7.104000000    -1.520000000
C    -0.504000000    -6.156000000    -0.575000000
O    -1.403000000    -6.833000000    -1.335000000
C    -2.518000000    -6.196000000    -1.723000000
C    -2.458000000    -5.004000000    -2.371000000
H    -1.552000000    -4.587000000    -2.803000000
C    -3.713000000    -6.839000000    -1.429000000
H    -3.826000000    -7.748000000    -0.842000000
C    -4.855000000    -6.220000000    -1.736000000
H    -5.798000000    -6.638000000    -1.394000000
C    -4.841000000    -4.972000000    -2.401000000
H    -5.756000000    -4.461000000    -2.688000000
C    -3.643000000    -4.413000000    -2.749000000
O    -3.537000000    -3.326000000    -3.630000000
C    -4.042000000    -2.150000000    -3.310000000
C    -4.076000000    -1.140000000    -4.262000000
H    -3.904000000    -1.410000000    -5.301000000
C    -4.262000000     0.202000000    -3.985000000
O    -4.423000000     1.051000000    -5.028000000
C    -4.254000000     2.453000000    -5.011000000
C    -2.995000000     3.007000000    -5.233000000
H    -2.100000000     2.474000000    -5.547000000
C    -5.349000000     3.212000000    -4.735000000
H    -6.335000000     2.754000000    -4.756000000
C    -5.195000000     4.580000000    -4.634000000
H    -6.057000000     5.180000000    -4.356000000
C    -3.893000000     5.200000000    -4.812000000
H    -3.821000000     6.279000000    -4.925000000
C    -2.804000000     4.389000000    -5.000000000
O    -1.564000000     4.988000000    -5.204000000
C    -0.635000000     4.695000000    -4.233000000
C     0.679000000     4.396000000    -4.678000000
H     0.963000000     4.298000000    -5.723000000
C     1.648000000     4.041000000    -3.708000000
O     2.866000000     3.494000000    -4.195000000
C     4.090000000     3.652000000    -3.487000000
C     4.390000000     4.864000000    -2.899000000
H     3.893000000     5.787000000    -3.187000000
C     5.569000000     4.996000000    -2.169000000
H     5.886000000     6.024000000    -2.016000000
C     6.348000000     3.946000000    -1.835000000
H     7.184000000     4.109000000    -1.159000000
C     5.939000000     2.716000000    -2.283000000
C     4.861000000     2.577000000    -3.072000000
H     4.521000000     1.603000000    -3.417000000
O    -4.009000000    -4.625000000    -7.075000000
H    -4.388000000    -4.947000000    -7.892000000
H    -4.719000000    -4.135000000    -6.659000000
O    -1.832000000    -2.246000000    -7.409000000
H    -2.020000000    -3.170000000    -7.571000000
H    -1.514000000    -2.220000000    -6.507000000
O     6.123000000    -4.128000000    -3.260000000
H     6.335000000    -4.943000000    -2.805000000
H     5.285000000    -3.856000000    -2.884000000
O     3.899000000    -8.054000000    -2.258000000
H     4.748000000    -7.746000000    -1.942000000
H     3.540000000    -7.310000000    -2.742000000
O     2.705000000    -6.764000000    -7.689000000
H     1.870000000    -7.174000000    -7.913000000
H     3.154000000    -7.415000000    -7.148000000
O     2.427000000     0.053000000    -3.827000000
H     1.840000000     0.024000000    -4.583000000
H     1.915000000     0.486000000    -3.144000000
O    -0.639000000    -0.213000000    -9.112000000
H    -0.773000000    -0.827000000    -9.834000000
H    -0.994000000    -0.663000000    -8.345000000
O     0.799000000    -0.070000000    -6.103000000
H    -0.012000000    -0.568000000    -6.003000000
H     1.420000000    -0.696000000    -6.476000000
O     3.195000000    -6.410000000    -4.038000000
H     3.361000000    -5.473000000    -3.941000000
H     2.261000000    -6.467000000    -4.243000000
O     1.551000000    -4.039000000    -7.083000000
H     1.221000000    -4.323000000    -6.230000000
H     1.858000000    -4.844000000    -7.500000000
O     4.869000000    -1.601000000    -4.869000000
H     5.599000000    -0.983000000    -4.826000000
H     4.105000000    -1.088000000    -4.604000000
O    -1.393000000    -5.810000000    -6.637000000
H    -1.957000000    -5.099000000    -6.333000000
H    -1.129000000    -5.547000000    -7.518000000
O     0.824000000     2.030000000    -7.900000000
H     1.228000000     1.574000000    -7.162000000
H     0.356000000     1.345000000    -8.378000000
O     3.153000000    -3.726000000    -3.447000000
H     3.678000000    -3.033000000    -3.849000000
H     2.275000000    -3.599000000    -3.806000000
O    -3.597000000    -1.479000000    -9.644000000
H    -4.436000000    -1.203000000    -9.275000000
H    -3.077000000    -1.740000000    -8.884000000
O     0.678000000    -9.114000000    -4.664000000
H     0.591000000    -8.186000000    -4.446000000
H     0.877000000    -9.538000000    -3.829000000
O    -2.902000000    -7.973000000    -6.279000000
H    -2.171000000    -7.367000000    -6.404000000
H    -3.659000000    -7.406000000    -6.127000000
O     0.310000000    -6.392000000    -4.636000000
H    -0.194000000    -6.315000000    -5.446000000
H     0.302000000    -5.510000000    -4.265000000
O     2.727000000    -1.382000000    -7.820000000
H     2.024000000    -2.003000000    -7.628000000
H     3.481000000    -1.716000000    -7.334000000
