201
-1228.58829
C    -5.088000000    -0.839000000    -2.105000000
H    -4.606000000    -0.376000000    -2.962000000
C    -4.936000000    -0.226000000    -0.864000000
C    -5.492000000    -0.858000000     0.282000000
H    -5.582000000    -0.317000000     1.221000000
C    -3.957000000     0.954000000    -0.666000000
O    -3.797000000     1.593000000    -1.944000000
H    -3.034000000     0.484000000    -0.296000000
O    -4.523000000     1.875000000     0.321000000
C    -3.581000000     2.520000000     1.096000000
C    -3.205000000     2.008000000     2.284000000
H    -3.696000000     1.066000000     2.517000000
C    -2.219000000     2.616000000     3.060000000
O    -1.829000000     2.047000000     4.201000000
C    -1.641000000     3.796000000     2.639000000
C    -0.503000000     4.454000000     3.413000000
H    -0.507000000     5.541000000     3.304000000
C     0.852000000     3.810000000     3.033000000
C     1.647000000     4.389000000     2.032000000
H     1.255000000     5.203000000     1.427000000
H    -0.552000000     4.372000000     4.500000000
C    -2.044000000     4.341000000     1.413000000
H    -1.583000000     5.292000000     1.159000000
C    -2.962000000     3.700000000     0.603000000
C    -3.312000000     4.304000000    -0.702000000
H    -3.215000000     5.391000000    -0.664000000
H    -4.378000000     4.213000000    -0.916000000
C    -2.460000000     3.634000000    -1.847000000
C    -1.377000000     4.366000000    -2.352000000
H    -1.207000000     5.348000000    -1.918000000
C    -2.754000000     2.342000000    -2.249000000
C    -2.014000000     1.763000000    -3.178000000
H    -2.310000000     0.730000000    -3.344000000
C    -0.962000000     2.427000000    -3.773000000
O    -0.112000000     1.628000000    -4.585000000
C     1.088000000     1.072000000    -4.019000000
C     1.171000000    -0.422000000    -4.308000000
C     2.399000000    -1.053000000    -4.710000000
H     3.342000000    -0.513000000    -4.721000000
C    -0.032000000    -1.218000000    -4.324000000
H    -1.005000000    -0.845000000    -4.017000000
O     2.256000000     1.885000000    -4.328000000
H     0.878000000     1.060000000    -2.939000000
C    -0.573000000     3.729000000    -3.321000000
C     0.804000000     4.380000000    -3.697000000
H     0.740000000     5.466000000    -3.601000000
H     0.909000000     4.174000000    -4.764000000
C     2.004000000     3.812000000    -2.916000000
C     2.337000000     4.317000000    -1.642000000
H     1.776000000     5.204000000    -1.359000000
C     2.723000000     2.670000000    -3.357000000
C     3.766000000     2.118000000    -2.589000000
H     4.222000000     1.176000000    -2.883000000
C     4.002000000     2.615000000    -1.317000000
O     4.705000000     1.870000000    -0.492000000
C     4.050000000     1.071000000     0.433000000
C     4.617000000    -0.393000000     0.516000000
C     5.313000000    -0.976000000    -0.529000000
H     5.549000000    -0.565000000    -1.508000000
C     4.256000000    -1.071000000     1.686000000
H     3.708000000    -0.589000000     2.491000000
O     4.296000000     1.721000000     1.715000000
H     2.960000000     1.079000000     0.289000000
C     3.321000000     3.748000000    -0.815000000
C     3.630000000     4.388000000     0.575000000
H     3.566000000     5.478000000     0.554000000
H     4.679000000     4.221000000     0.829000000
C     2.833000000     3.763000000     1.625000000
C     3.215000000     2.502000000     2.181000000
C     2.386000000     1.947000000     3.143000000
H     2.689000000     0.996000000     3.574000000
C     1.228000000     2.561000000     3.640000000
O     0.487000000     1.882000000     4.561000000
C    -0.732000000     1.109000000     4.133000000
H    -0.554000000     0.862000000     3.076000000
C    -1.038000000    -0.173000000     4.919000000
C    -2.277000000    -0.791000000     4.782000000
H    -3.096000000    -0.327000000     4.239000000
C    -0.013000000    -0.878000000     5.401000000
H     0.992000000    -0.464000000     5.419000000
C    -0.184000000    -2.199000000     5.806000000
O     0.871000000    -2.999000000     6.319000000
C    -1.500000000    -2.790000000     5.850000000
H    -1.770000000    -3.777000000     6.214000000
C    -2.553000000    -2.000000000     5.355000000
O    -3.829000000    -2.623000000     5.277000000
C    -4.911000000    -2.142000000     4.583000000
C    -5.068000000    -2.350000000     3.189000000
H    -4.221000000    -2.806000000     2.684000000
C    -6.014000000    -1.568000000     5.278000000
H    -5.929000000    -1.453000000     6.356000000
C    -7.153000000    -1.405000000     4.561000000
H    -8.068000000    -1.036000000     5.019000000
C    -7.387000000    -1.849000000     3.267000000
H    -8.361000000    -1.720000000     2.802000000
C    -6.334000000    -2.317000000     2.563000000
O    -6.565000000    -2.769000000     1.318000000
C    -6.030000000    -2.151000000     0.226000000
C    -6.112000000    -2.729000000    -1.025000000
H    -6.447000000    -3.754000000    -1.160000000
C    -5.666000000    -2.089000000    -2.206000000
O    -5.716000000    -2.806000000    -3.371000000
C    -4.665000000    -2.823000000    -4.252000000
C    -3.383000000    -3.301000000    -3.959000000
H    -3.334000000    -3.866000000    -3.032000000
C    -4.798000000    -2.212000000    -5.440000000
H    -5.708000000    -1.700000000    -5.741000000
C    -3.761000000    -2.009000000    -6.341000000
H    -3.886000000    -1.570000000    -7.328000000
C    -2.493000000    -2.434000000    -5.996000000
H    -1.624000000    -2.326000000    -6.640000000
C    -2.281000000    -3.049000000    -4.804000000
O    -1.045000000    -3.487000000    -4.457000000
C     0.030000000    -2.600000000    -4.470000000
C     1.227000000    -3.219000000    -4.835000000
H     1.301000000    -4.262000000    -5.132000000
C     2.389000000    -2.379000000    -4.912000000
O     3.584000000    -2.985000000    -5.366000000
C     4.769000000    -3.018000000    -4.620000000
C     4.863000000    -2.884000000    -3.248000000
H     3.899000000    -2.761000000    -2.761000000
C     5.901000000    -3.180000000    -5.363000000
H     5.881000000    -3.173000000    -6.449000000
C     7.167000000    -3.307000000    -4.797000000
H     7.984000000    -3.380000000    -5.510000000
C     7.309000000    -3.201000000    -3.389000000
H     8.334000000    -3.261000000    -3.034000000
C     6.124000000    -3.070000000    -2.664000000
O     6.359000000    -3.021000000    -1.320000000
C     5.586000000    -2.327000000    -0.364000000
C     5.307000000    -3.076000000     0.775000000
H     5.548000000    -4.133000000     0.847000000
C     4.597000000    -2.445000000     1.851000000
O     4.276000000    -3.224000000     2.917000000
C     3.901000000    -2.765000000     4.165000000
C     4.686000000    -1.915000000     4.898000000
H     5.633000000    -1.660000000     4.431000000
C     4.199000000    -1.373000000     6.084000000
H     4.745000000    -0.580000000     6.588000000
C     2.980000000    -1.747000000     6.622000000
H     2.547000000    -1.334000000     7.529000000
C     2.198000000    -2.737000000     5.958000000
C     2.708000000    -3.233000000     4.715000000
H     2.010000000    -3.852000000     4.158000000
O     0.513000000    -7.505000000    -0.535000000
H     0.744000000    -7.317000000    -1.445000000
H     0.925000000    -6.802000000    -0.033000000
O    -5.079000000    -6.664000000     1.537000000
H    -4.878000000    -7.414000000     0.978000000
H    -4.308000000    -6.100000000     1.468000000
O    -0.656000000    -9.380000000     3.770000000
H    -1.567000000    -9.090000000     3.819000000
H    -0.610000000   -10.128000000     4.366000000
O    -7.740000000    -6.472000000     4.696000000
H    -7.797000000    -7.067000000     3.948000000
H    -6.891000000    -6.042000000     4.596000000
O    -2.195000000    -7.860000000     0.847000000
H    -1.691000000    -7.805000000     0.035000000
H    -2.060000000    -7.012000000     1.271000000
O    -5.302000000    -5.490000000     4.069000000
H    -4.655000000    -4.785000000     4.036000000
H    -5.454000000    -5.719000000     3.153000000
O     0.716000000    -9.477000000     1.532000000
H     0.542000000    -8.617000000     1.151000000
H     0.284000000    -9.453000000     2.386000000
O    -5.405000000    -7.366000000    -1.587000000
H    -5.352000000    -8.220000000    -2.017000000
H    -5.693000000    -6.768000000    -2.277000000
O    -3.436000000    -5.640000000    -1.427000000
H    -3.385000000    -5.283000000    -0.540000000
H    -4.017000000    -6.396000000    -1.347000000
O    -3.022000000    -7.501000000     3.838000000
H    -3.090000000    -6.898000000     3.098000000
H    -2.741000000    -6.952000000     4.570000000
O    -3.050000000    -6.607000000    -4.046000000
H    -2.835000000    -6.254000000    -3.183000000
H    -4.004000000    -6.680000000    -4.044000000
O     0.511000000    -6.513000000     4.206000000
H     0.095000000    -7.355000000     4.023000000
H    -0.100000000    -5.864000000     3.857000000
O    -4.097000000    -6.688000000     6.229000000
H    -4.489000000    -6.302000000     5.446000000
H    -4.839000000    -6.852000000     6.812000000
O    -2.946000000   -10.170000000     1.696000000
H    -2.631000000    -9.267000000     1.686000000
H    -3.481000000   -10.246000000     0.905000000
O     1.959000000    -2.773000000    -0.149000000
H     1.982000000    -3.687000000     0.133000000
H     1.753000000    -2.281000000     0.646000000
O    -7.896000000    -6.750000000     1.728000000
H    -8.094000000    -7.008000000     0.828000000
H    -7.020000000    -6.369000000     1.681000000
O     2.232000000    -5.742000000     0.991000000
H     1.671000000    -5.434000000     1.703000000
H     3.051000000    -5.989000000     1.421000000
O    -4.098000000    -9.919000000     4.416000000
H    -3.403000000    -9.639000000     5.012000000
H    -3.937000000    -9.426000000     3.612000000
O     2.808000000    -5.334000000    -1.658000000
H     2.593000000    -5.581000000    -0.759000000
H     3.744000000    -5.515000000    -1.740000000
