201
-1245.93525
C     0.310000000    -5.713000000    -0.045000000
H    -0.763000000    -5.814000000     0.090000000
C     1.117000000    -4.903000000     0.753000000
C     2.480000000    -4.805000000     0.523000000
H     3.032000000    -4.127000000     1.168000000
C     0.495000000    -3.888000000     1.682000000
O    -0.800000000    -4.350000000     2.110000000
H     0.430000000    -2.921000000     1.162000000
O     1.366000000    -3.645000000     2.896000000
C     1.417000000    -2.413000000     3.541000000
C     2.537000000    -1.603000000     3.379000000
H     3.377000000    -1.920000000     2.767000000
C     2.581000000    -0.374000000     4.048000000
O     3.641000000     0.509000000     3.721000000
C     1.408000000     0.101000000     4.658000000
C     1.400000000     1.515000000     5.291000000
H     0.738000000     1.412000000     6.153000000
C     0.978000000     2.577000000     4.260000000
C    -0.392000000     3.021000000     4.256000000
H    -1.095000000     2.557000000     4.942000000
H     2.362000000     1.669000000     5.785000000
C     0.275000000    -0.770000000     4.742000000
H    -0.624000000    -0.416000000     5.240000000
C     0.386000000    -2.029000000     4.319000000
C    -0.806000000    -2.917000000     4.594000000
H    -1.315000000    -2.650000000     5.522000000
H    -0.368000000    -3.901000000     4.775000000
C    -1.870000000    -2.836000000     3.507000000
C    -2.901000000    -1.840000000     3.606000000
H    -3.124000000    -1.312000000     4.530000000
C    -1.825000000    -3.518000000     2.291000000
C    -2.646000000    -3.209000000     1.242000000
H    -2.509000000    -3.902000000     0.415000000
C    -3.602000000    -2.225000000     1.321000000
O    -4.406000000    -2.061000000     0.206000000
C    -4.072000000    -0.985000000    -0.664000000
C    -4.064000000    -1.455000000    -2.121000000
C    -4.519000000    -0.611000000    -3.145000000
H    -5.104000000     0.263000000    -2.871000000
C    -3.476000000    -2.661000000    -2.503000000
H    -3.140000000    -3.338000000    -1.722000000
O    -4.894000000     0.195000000    -0.334000000
H    -3.016000000    -0.735000000    -0.484000000
C    -3.694000000    -1.546000000     2.515000000
C    -4.688000000    -0.463000000     2.647000000
H    -4.831000000    -0.339000000     3.723000000
H    -5.674000000    -0.622000000     2.205000000
C    -4.235000000     0.830000000     1.998000000
C    -3.640000000     1.814000000     2.814000000
H    -3.613000000     1.543000000     3.867000000
C    -4.452000000     1.116000000     0.616000000
C    -4.110000000     2.366000000     0.090000000
H    -4.098000000     2.489000000    -0.990000000
C    -3.416000000     3.186000000     0.927000000
O    -2.776000000     4.295000000     0.345000000
C    -1.341000000     4.239000000     0.211000000
C    -0.991000000     4.655000000    -1.206000000
C    -1.668000000     4.136000000    -2.364000000
H    -2.558000000     3.559000000    -2.123000000
C     0.292000000     5.171000000    -1.488000000
H     0.864000000     5.417000000    -0.597000000
O    -0.594000000     4.984000000     1.213000000
H    -1.069000000     3.197000000     0.435000000
C    -3.226000000     3.027000000     2.330000000
C    -2.419000000     4.045000000     3.177000000
H    -2.879000000     4.119000000     4.164000000
H    -2.557000000     5.052000000     2.776000000
C    -0.896000000     3.782000000     3.200000000
C    -0.033000000     4.264000000     2.273000000
C     1.325000000     3.837000000     2.261000000
H     1.993000000     4.229000000     1.498000000
C     1.829000000     2.998000000     3.214000000
O     3.088000000     2.623000000     3.126000000
C     3.293000000     1.326000000     2.564000000
H     2.456000000     0.858000000     2.024000000
C     4.421000000     1.395000000     1.524000000
C     4.877000000     0.260000000     0.840000000
H     4.484000000    -0.683000000     1.211000000
C     4.810000000     2.607000000     1.010000000
H     4.509000000     3.504000000     1.545000000
C     5.632000000     2.693000000    -0.150000000
O     5.877000000     3.992000000    -0.580000000
C     6.198000000     1.515000000    -0.716000000
H     6.927000000     1.586000000    -1.520000000
C     5.759000000     0.261000000    -0.219000000
O     6.131000000    -0.867000000    -0.904000000
C     5.990000000    -2.088000000    -0.208000000
C     5.287000000    -3.087000000    -0.858000000
H     4.906000000    -2.963000000    -1.868000000
C     6.557000000    -2.381000000     1.069000000
H     7.045000000    -1.582000000     1.621000000
C     6.359000000    -3.635000000     1.645000000
H     6.639000000    -3.719000000     2.691000000
C     5.641000000    -4.615000000     0.974000000
H     5.395000000    -5.579000000     1.413000000
C     5.151000000    -4.325000000    -0.268000000
O     4.431000000    -5.355000000    -0.754000000
C     3.077000000    -5.465000000    -0.551000000
C     2.280000000    -6.312000000    -1.271000000
H     2.766000000    -6.936000000    -2.017000000
C     0.868000000    -6.396000000    -1.101000000
O     0.090000000    -7.175000000    -1.797000000
C    -1.121000000    -6.841000000    -2.302000000
C    -1.206000000    -5.617000000    -2.937000000
H    -0.361000000    -4.977000000    -3.177000000
C    -2.234000000    -7.616000000    -2.093000000
H    -2.172000000    -8.592000000    -1.619000000
C    -3.484000000    -7.199000000    -2.489000000
H    -4.316000000    -7.883000000    -2.339000000
C    -3.603000000    -5.937000000    -3.071000000
H    -4.584000000    -5.649000000    -3.441000000
C    -2.478000000    -5.199000000    -3.367000000
O    -2.532000000    -4.105000000    -4.138000000
C    -3.265000000    -2.989000000    -3.844000000
C    -3.764000000    -2.151000000    -4.838000000
H    -3.537000000    -2.327000000    -5.887000000
C    -4.274000000    -0.936000000    -4.451000000
O    -4.690000000    -0.096000000    -5.431000000
C    -4.417000000     1.288000000    -5.346000000
C    -3.146000000     1.717000000    -5.128000000
H    -2.360000000     0.969000000    -5.064000000
C    -5.381000000     2.210000000    -5.604000000
H    -6.398000000     1.941000000    -5.879000000
C    -5.049000000     3.566000000    -5.662000000
H    -5.818000000     4.280000000    -5.943000000
C    -3.777000000     3.985000000    -5.326000000
H    -3.435000000     5.012000000    -5.417000000
C    -2.842000000     3.040000000    -4.983000000
O    -1.566000000     3.440000000    -4.712000000
C    -1.125000000     4.170000000    -3.662000000
C     0.135000000     4.799000000    -3.863000000
H     0.594000000     4.897000000    -4.843000000
C     0.842000000     5.219000000    -2.762000000
O     2.127000000     5.767000000    -3.007000000
C     3.075000000     5.907000000    -2.029000000
C     3.376000000     7.163000000    -1.575000000
H     2.891000000     8.066000000    -1.938000000
C     4.504000000     7.345000000    -0.738000000
H     4.834000000     8.314000000    -0.375000000
C     5.219000000     6.275000000    -0.289000000
H     6.204000000     6.371000000     0.161000000
C     4.868000000     4.956000000    -0.737000000
C     3.809000000     4.794000000    -1.635000000
H     3.603000000     3.823000000    -2.078000000
O     3.626000000    -0.175000000    -3.718000000
H     3.217000000    -0.992000000    -3.434000000
H     2.892000000     0.389000000    -3.961000000
O     3.165000000     3.372000000    -5.508000000
H     2.706000000     2.980000000    -6.251000000
H     2.981000000     4.309000000    -5.580000000
O    -1.016000000     1.316000000    -7.396000000
H    -1.835000000     1.287000000    -7.892000000
H    -0.621000000     0.456000000    -7.534000000
O     6.154000000    -3.947000000    -6.072000000
H     5.803000000    -4.225000000    -6.918000000
H     5.749000000    -3.094000000    -5.914000000
O     3.981000000    -7.958000000    -5.939000000
H     3.998000000    -7.217000000    -5.333000000
H     3.243000000    -7.774000000    -6.521000000
O     6.431000000     0.035000000    -4.045000000
H     6.413000000    -0.496000000    -4.841000000
H     5.600000000    -0.155000000    -3.611000000
O    -0.324000000    -1.435000000    -7.445000000
H    -1.108000000    -1.899000000    -7.739000000
H    -0.153000000    -1.785000000    -6.571000000
O     3.308000000    -5.366000000    -4.454000000
H     2.648000000    -4.828000000    -4.018000000
H     3.422000000    -4.958000000    -5.312000000
O    -3.281000000    -2.424000000    -8.652000000
H    -4.167000000    -2.423000000    -8.291000000
H    -3.284000000    -3.139000000    -9.289000000
O    -0.732000000    -7.041000000    -6.799000000
H    -0.573000000    -6.123000000    -6.579000000
H    -1.419000000    -7.317000000    -6.193000000
O     1.314000000     1.723000000    -4.054000000
H     1.933000000     2.328000000    -4.463000000
H     0.492000000     2.213000000    -4.013000000
O     1.688000000    -7.956000000    -7.396000000
H     1.504000000    -8.496000000    -8.164000000
H     0.838000000    -7.591000000    -7.150000000
O     2.631000000    -2.880000000    -6.785000000
H     2.140000000    -3.010000000    -5.974000000
H     2.208000000    -3.462000000    -7.417000000
O     6.343000000    -5.648000000    -4.039000000
H     6.332000000    -4.898000000    -4.634000000
H     5.450000000    -5.697000000    -3.698000000
O     1.723000000     2.101000000    -7.576000000
H     0.797000000     2.224000000    -7.367000000
H     1.759000000     1.250000000    -8.012000000
O    -1.232000000    -4.598000000    -9.127000000
H    -0.305000000    -4.706000000    -9.342000000
H    -1.237000000    -4.367000000    -8.198000000
O    -0.763000000    -4.395000000    -6.460000000
H    -0.221000000    -3.769000000    -5.982000000
H    -1.487000000    -4.590000000    -5.865000000
O     4.874000000    -1.274000000    -6.441000000
H     4.761000000    -0.325000000    -6.485000000
H     3.983000000    -1.623000000    -6.457000000
O     1.629000000    -0.214000000    -8.999000000
H     1.266000000    -0.619000000    -8.211000000
H     1.585000000    -0.902000000    -9.664000000
