201
-1270.56254
C     3.069000000    -4.409000000     0.175000000
H     2.201000000    -5.030000000     0.382000000
C     3.363000000    -3.336000000     0.986000000
C     4.530000000    -2.611000000     0.667000000
H     4.775000000    -1.713000000     1.228000000
C     2.333000000    -2.913000000     2.059000000
O     1.434000000    -3.994000000     2.581000000
H     1.706000000    -2.142000000     1.588000000
O     2.985000000    -2.265000000     3.157000000
C     2.403000000    -1.161000000     3.772000000
C     2.996000000     0.034000000     3.498000000
H     3.827000000     0.001000000     2.798000000
C     2.460000000     1.268000000     3.893000000
O     2.941000000     2.447000000     3.348000000
C     1.283000000     1.267000000     4.661000000
C     0.590000000     2.533000000     4.898000000
H     0.077000000     2.412000000     5.855000000
C    -0.394000000     2.887000000     3.794000000
C    -1.736000000     2.596000000     3.893000000
H    -2.109000000     2.105000000     4.788000000
H     1.217000000     3.426000000     4.956000000
C     0.746000000     0.001000000     5.024000000
H    -0.182000000    -0.006000000     5.589000000
C     1.246000000    -1.215000000     4.557000000
C     0.625000000    -2.514000000     4.964000000
H    -0.004000000    -2.518000000     5.857000000
H     1.405000000    -3.260000000     5.128000000
C    -0.359000000    -2.973000000     3.806000000
C    -1.748000000    -2.676000000     3.867000000
H    -2.151000000    -2.077000000     4.680000000
C     0.145000000    -3.635000000     2.674000000
C    -0.722000000    -3.992000000     1.654000000
H    -0.336000000    -4.554000000     0.808000000
C    -2.075000000    -3.770000000     1.742000000
O    -2.925000000    -4.083000000     0.697000000
C    -3.117000000    -2.975000000    -0.311000000
C    -2.862000000    -3.418000000    -1.773000000
C    -3.324000000    -2.675000000    -2.814000000
H    -3.942000000    -1.822000000    -2.545000000
C    -1.919000000    -4.395000000    -2.035000000
H    -1.399000000    -4.851000000    -1.196000000
O    -4.407000000    -2.410000000    -0.140000000
H    -2.408000000    -2.150000000    -0.145000000
C    -2.619000000    -3.044000000     2.813000000
C    -4.099000000    -2.613000000     2.831000000
H    -4.475000000    -2.341000000     3.819000000
H    -4.678000000    -3.489000000     2.532000000
C    -4.308000000    -1.300000000     2.037000000
C    -4.207000000    -0.100000000     2.718000000
H    -3.802000000    -0.151000000     3.726000000
C    -4.508000000    -1.302000000     0.650000000
C    -4.586000000    -0.078000000     0.035000000
H    -4.838000000    -0.012000000    -1.020000000
C    -4.416000000     1.149000000     0.680000000
O    -4.421000000     2.214000000    -0.122000000
C    -3.122000000     2.823000000    -0.329000000
C    -3.049000000     3.307000000    -1.759000000
C    -3.572000000     2.546000000    -2.830000000
H    -4.209000000     1.694000000    -2.610000000
C    -2.251000000     4.408000000    -2.096000000
H    -1.784000000     5.040000000    -1.345000000
O    -2.913000000     3.893000000     0.575000000
H    -2.345000000     2.046000000    -0.276000000
C    -4.204000000     1.153000000     2.098000000
C    -4.110000000     2.387000000     2.893000000
H    -4.370000000     2.303000000     3.951000000
H    -4.901000000     3.074000000     2.584000000
C    -2.657000000     2.953000000     2.840000000
C    -2.158000000     3.683000000     1.745000000
C    -0.819000000     4.048000000     1.691000000
H    -0.482000000     4.642000000     0.846000000
C     0.037000000     3.607000000     2.668000000
O     1.380000000     3.901000000     2.432000000
C     2.269000000     2.829000000     2.113000000
H     1.767000000     1.955000000     1.671000000
C     3.155000000     3.309000000     1.015000000
C     4.347000000     2.680000000     0.772000000
H     4.682000000     1.861000000     1.403000000
C     2.654000000     4.192000000     0.053000000
H     1.715000000     4.728000000     0.162000000
C     3.427000000     4.533000000    -1.097000000
O     3.086000000     5.560000000    -1.961000000
C     4.628000000     3.913000000    -1.371000000
H     5.158000000     4.021000000    -2.314000000
C     5.092000000     3.006000000    -0.394000000
O     6.180000000     2.290000000    -0.877000000
C     6.707000000     1.229000000    -0.091000000
C     6.389000000    -0.062000000    -0.507000000
H     5.799000000    -0.206000000    -1.409000000
C     7.521000000     1.505000000     1.032000000
H     7.774000000     2.486000000     1.426000000
C     7.832000000     0.345000000     1.665000000
H     8.310000000     0.554000000     2.619000000
C     7.638000000    -0.955000000     1.226000000
H     8.037000000    -1.758000000     1.840000000
C     6.850000000    -1.158000000     0.164000000
O     6.638000000    -2.384000000    -0.387000000
C     5.510000000    -3.052000000    -0.253000000
C     5.251000000    -4.203000000    -0.991000000
H     5.912000000    -4.516000000    -1.794000000
C     3.987000000    -4.788000000    -0.827000000
O     3.689000000    -5.800000000    -1.791000000
C     2.451000000    -6.379000000    -1.892000000
C     1.516000000    -5.888000000    -2.806000000
H     1.806000000    -5.130000000    -3.530000000
C     2.038000000    -7.262000000    -0.916000000
H     2.718000000    -7.460000000    -0.091000000
C     0.694000000    -7.654000000    -0.795000000
H     0.233000000    -8.030000000     0.116000000
C    -0.230000000    -7.219000000    -1.756000000
H    -1.300000000    -7.369000000    -1.637000000
C     0.155000000    -6.383000000    -2.769000000
O    -0.702000000    -5.778000000    -3.669000000
C    -1.525000000    -4.694000000    -3.362000000
C    -2.121000000    -4.032000000    -4.431000000
H    -1.716000000    -4.144000000    -5.433000000
C    -3.135000000    -3.068000000    -4.187000000
O    -3.657000000    -2.376000000    -5.248000000
C    -4.351000000    -1.197000000    -5.004000000
C    -3.696000000     0.014000000    -5.179000000
H    -2.610000000    -0.023000000    -5.207000000
C    -5.748000000    -1.291000000    -4.902000000
H    -6.177000000    -2.287000000    -4.823000000
C    -6.526000000    -0.172000000    -4.844000000
H    -7.595000000    -0.142000000    -4.647000000
C    -5.925000000     1.053000000    -4.918000000
H    -6.504000000     1.969000000    -4.834000000
C    -4.516000000     1.108000000    -5.081000000
O    -3.975000000     2.348000000    -5.209000000
C    -3.401000000     2.986000000    -4.139000000
C    -2.698000000     4.137000000    -4.399000000
H    -2.633000000     4.567000000    -5.395000000
C    -2.071000000     4.852000000    -3.373000000
O    -1.299000000     5.915000000    -3.674000000
C    -0.316000000     6.423000000    -2.864000000
C    -0.538000000     7.584000000    -2.258000000
H    -1.447000000     8.155000000    -2.430000000
C     0.501000000     8.067000000    -1.450000000
H     0.423000000     9.005000000    -0.906000000
C     1.726000000     7.358000000    -1.273000000
H     2.507000000     7.631000000    -0.568000000
C     1.915000000     6.209000000    -2.034000000
C     0.895000000     5.723000000    -2.796000000
H     1.119000000     4.822000000    -3.362000000
O     3.016000000     1.862000000    -6.997000000
H     3.175000000     0.918000000    -7.008000000
H     3.399000000     2.159000000    -6.171000000
O     3.874000000     2.960000000    -4.175000000
H     3.563000000     2.774000000    -3.289000000
H     4.419000000     2.206000000    -4.401000000
O     0.671000000     2.181000000    -4.860000000
H     1.139000000     1.764000000    -5.583000000
H     0.828000000     3.118000000    -4.982000000
O     2.980000000    -4.628000000    -8.891000000
H     2.646000000    -4.494000000    -8.004000000
H     3.619000000    -3.926000000    -9.015000000
O    -1.548000000    -1.869000000    -7.798000000
H    -2.338000000    -1.329000000    -7.801000000
H    -1.306000000    -1.943000000    -8.721000000
O     6.280000000     1.082000000    -8.405000000
H     5.533000000     1.428000000    -8.894000000
H     5.894000000     0.479000000    -7.770000000
O     7.787000000    -2.531000000    -3.219000000
H     7.087000000    -3.009000000    -3.665000000
H     7.369000000    -2.169000000    -2.437000000
O     0.558000000    -0.667000000    -6.138000000
H    -0.062000000    -1.208000000    -6.627000000
H     0.936000000    -1.262000000    -5.490000000
O     3.371000000    -0.874000000    -6.928000000
H     2.820000000    -1.092000000    -6.177000000
H     4.234000000    -1.221000000    -6.701000000
O     6.160000000    -1.470000000    -6.787000000
H     7.116000000    -1.466000000    -6.831000000
H     5.882000000    -1.793000000    -7.644000000
O     1.419000000     2.123000000    -2.290000000
H     0.862000000     1.422000000    -1.953000000
H     1.083000000     2.295000000    -3.170000000
O     2.241000000    -4.491000000    -6.120000000
H     1.341000000    -4.656000000    -6.402000000
H     2.167000000    -3.770000000    -5.495000000
O     2.874000000    -6.990000000    -7.440000000
H     2.451000000    -6.402000000    -6.814000000
H     3.034000000    -6.445000000    -8.210000000
O     5.586000000    -3.198000000    -4.765000000
H     4.990000000    -2.681000000    -4.224000000
H     5.856000000    -2.600000000    -5.462000000
O     0.093000000    -5.784000000    -7.229000000
H     0.325000000    -6.003000000    -8.132000000
H     0.065000000    -6.627000000    -6.777000000
O     4.870000000    -5.814000000    -5.362000000
H     3.981000000    -5.461000000    -5.328000000
H     5.431000000    -5.072000000    -5.136000000
O     2.729000000     0.462000000    -9.583000000
H     2.191000000    -0.194000000    -9.138000000
H     2.753000000     1.203000000    -8.978000000
O     5.236000000     0.578000000    -4.585000000
H     4.584000000    -0.079000000    -4.341000000
H     5.920000000     0.082000000    -5.034000000
O    -0.327000000     1.372000000    -7.885000000
H    -1.083000000     1.899000000    -7.626000000
H    -0.031000000     0.962000000    -7.072000000
