201
-1232.76164
C     2.755000000    -4.388000000    -0.292000000
H     1.818000000    -4.936000000    -0.226000000
C     3.111000000    -3.452000000     0.696000000
C     4.218000000    -2.652000000     0.458000000
H     4.404000000    -1.842000000     1.158000000
C     2.168000000    -3.034000000     1.793000000
O     1.375000000    -4.136000000     2.353000000
H     1.481000000    -2.344000000     1.281000000
O     2.882000000    -2.265000000     2.775000000
C     2.335000000    -1.230000000     3.497000000
C     2.867000000     0.044000000     3.230000000
H     3.711000000     0.204000000     2.563000000
C     2.234000000     1.178000000     3.656000000
O     2.748000000     2.376000000     3.342000000
C     1.100000000     1.059000000     4.505000000
C     0.426000000     2.341000000     4.979000000
H    -0.032000000     2.012000000     5.914000000
C    -0.600000000     2.863000000     4.002000000
C    -1.940000000     2.401000000     4.109000000
H    -2.171000000     1.622000000     4.832000000
H     1.164000000     3.129000000     5.142000000
C     0.669000000    -0.167000000     4.927000000
H     0.036000000    -0.294000000     5.802000000
C     1.262000000    -1.287000000     4.384000000
C     0.575000000    -2.615000000     4.780000000
H     0.029000000    -2.513000000     5.720000000
H     1.300000000    -3.382000000     5.061000000
C    -0.386000000    -3.123000000     3.714000000
C    -1.716000000    -2.878000000     3.763000000
H    -2.077000000    -2.357000000     4.645000000
C     0.091000000    -3.891000000     2.642000000
C    -0.710000000    -4.255000000     1.599000000
H    -0.228000000    -4.725000000     0.745000000
C    -2.025000000    -3.902000000     1.615000000
O    -2.828000000    -4.228000000     0.535000000
C    -3.103000000    -3.176000000    -0.406000000
C    -2.890000000    -3.580000000    -1.870000000
C    -3.490000000    -2.793000000    -2.878000000
H    -4.101000000    -1.901000000    -2.764000000
C    -2.048000000    -4.683000000    -2.226000000
H    -1.561000000    -5.252000000    -1.437000000
O    -4.401000000    -2.601000000    -0.192000000
H    -2.340000000    -2.447000000    -0.097000000
C    -2.558000000    -3.271000000     2.734000000
C    -3.968000000    -2.845000000     2.716000000
H    -4.430000000    -2.808000000     3.705000000
H    -4.521000000    -3.615000000     2.174000000
C    -4.223000000    -1.566000000     1.900000000
C    -4.090000000    -0.359000000     2.628000000
H    -3.850000000    -0.381000000     3.688000000
C    -4.285000000    -1.451000000     0.541000000
C    -4.500000000    -0.190000000    -0.078000000
H    -4.628000000    -0.161000000    -1.157000000
C    -4.485000000     0.998000000     0.702000000
O    -4.375000000     2.152000000    -0.002000000
C    -3.089000000     2.794000000    -0.020000000
C    -2.691000000     3.286000000    -1.437000000
C    -2.852000000     2.473000000    -2.493000000
H    -3.182000000     1.446000000    -2.365000000
C    -2.214000000     4.577000000    -1.615000000
H    -2.224000000     5.331000000    -0.832000000
O    -3.107000000     3.857000000     0.976000000
H    -2.328000000     2.035000000     0.215000000
C    -4.245000000     0.886000000     2.112000000
C    -4.201000000     2.106000000     3.057000000
H    -4.376000000     1.788000000     4.087000000
H    -4.957000000     2.875000000     2.881000000
C    -2.844000000     2.709000000     3.112000000
C    -2.440000000     3.599000000     2.080000000
C    -1.140000000     4.157000000     2.149000000
H    -0.767000000     4.775000000     1.337000000
C    -0.222000000     3.790000000     3.089000000
O     1.128000000     4.137000000     2.825000000
C     2.063000000     3.125000000     2.319000000
H     1.606000000     2.330000000     1.712000000
C     3.015000000     3.642000000     1.252000000
C     4.256000000     3.034000000     1.144000000
H     4.590000000     2.228000000     1.793000000
C     2.611000000     4.625000000     0.379000000
H     1.629000000     5.074000000     0.502000000
C     3.451000000     4.977000000    -0.685000000
O     3.068000000     5.883000000    -1.615000000
C     4.698000000     4.319000000    -0.796000000
H     5.230000000     4.487000000    -1.729000000
C     5.067000000     3.348000000     0.115000000
O     6.238000000     2.687000000    -0.145000000
C     6.536000000     1.407000000     0.261000000
C     6.126000000     0.268000000    -0.429000000
H     5.512000000     0.336000000    -1.323000000
C     7.406000000     1.303000000     1.331000000
H     7.658000000     2.184000000     1.916000000
C     7.985000000     0.062000000     1.615000000
H     8.668000000    -0.108000000     2.443000000
C     7.652000000    -1.068000000     0.886000000
H     8.157000000    -2.013000000     1.071000000
C     6.582000000    -0.993000000     0.001000000
O     6.255000000    -2.105000000    -0.726000000
C     5.121000000    -2.836000000    -0.547000000
C     4.822000000    -3.780000000    -1.490000000
H     5.422000000    -3.932000000    -2.384000000
C     3.588000000    -4.529000000    -1.398000000
O     3.362000000    -5.558000000    -2.393000000
C     2.175000000    -6.322000000    -2.444000000
C     1.093000000    -5.799000000    -3.194000000
H     1.181000000    -4.852000000    -3.720000000
C     2.079000000    -7.513000000    -1.714000000
H     2.945000000    -7.691000000    -1.082000000
C     0.827000000    -8.106000000    -1.747000000
H     0.739000000    -8.974000000    -1.098000000
C    -0.211000000    -7.707000000    -2.516000000
H    -1.091000000    -8.328000000    -2.662000000
C    -0.100000000    -6.473000000    -3.209000000
O    -1.161000000    -6.033000000    -3.936000000
C    -1.831000000    -4.970000000    -3.584000000
C    -2.446000000    -4.231000000    -4.520000000
H    -2.295000000    -4.409000000    -5.582000000
C    -3.261000000    -3.138000000    -4.201000000
O    -3.741000000    -2.449000000    -5.274000000
C    -4.218000000    -1.217000000    -5.123000000
C    -3.295000000    -0.218000000    -5.059000000
H    -2.243000000    -0.439000000    -5.218000000
C    -5.552000000    -0.956000000    -4.961000000
H    -6.242000000    -1.779000000    -4.794000000
C    -5.965000000     0.399000000    -4.849000000
H    -7.022000000     0.617000000    -4.716000000
C    -5.017000000     1.392000000    -4.931000000
H    -5.374000000     2.417000000    -4.873000000
C    -3.655000000     1.118000000    -4.880000000
O    -2.716000000     2.198000000    -4.855000000
C    -2.480000000     2.985000000    -3.750000000
C    -2.031000000     4.287000000    -3.967000000
H    -1.878000000     4.637000000    -4.984000000
C    -1.772000000     5.043000000    -2.835000000
O    -1.400000000     6.337000000    -3.014000000
C    -0.310000000     6.916000000    -2.455000000
C    -0.532000000     8.078000000    -1.738000000
H    -1.488000000     8.580000000    -1.859000000
C     0.568000000     8.582000000    -1.085000000
H     0.610000000     9.534000000    -0.563000000
C     1.795000000     7.822000000    -1.022000000
H     2.626000000     8.185000000    -0.423000000
C     1.950000000     6.632000000    -1.719000000
C     0.900000000     6.190000000    -2.438000000
H     1.030000000     5.304000000    -3.055000000
O     1.766000000     2.366000000    -9.193000000
H     1.258000000     1.786000000    -8.625000000
H     2.670000000     2.067000000    -9.092000000
O     3.468000000     4.217000000    -4.283000000
H     3.315000000     3.506000000    -3.660000000
H     4.294000000     4.610000000    -4.000000000
O     0.318000000     1.982000000    -4.832000000
H    -0.636000000     1.901000000    -4.860000000
H     0.588000000     1.954000000    -5.750000000
O     1.559000000    -1.308000000    -9.417000000
H     1.073000000    -0.654000000    -9.920000000
H     2.153000000    -1.706000000   -10.053000000
O    -1.823000000    -3.630000000    -7.837000000
H    -1.390000000    -2.871000000    -7.446000000
H    -1.266000000    -4.372000000    -7.602000000
O     4.622000000     1.571000000    -8.334000000
H     4.813000000     2.313000000    -7.759000000
H     4.205000000     0.926000000    -7.762000000
O     7.469000000    -1.679000000    -4.048000000
H     6.539000000    -1.745000000    -4.266000000
H     7.588000000    -0.768000000    -3.780000000
O    -0.052000000    -1.526000000    -6.932000000
H     0.574000000    -1.722000000    -7.629000000
H     0.308000000    -1.959000000    -6.158000000
O     3.476000000    -0.593000000    -7.072000000
H     3.051000000    -0.808000000    -6.241000000
H     2.799000000    -0.738000000    -7.732000000
O     3.161000000    -7.299000000    -5.747000000
H     2.916000000    -6.374000000    -5.724000000
H     3.640000000    -7.399000000    -6.570000000
O     6.358000000    -1.462000000    -7.188000000
H     6.876000000    -1.357000000    -7.986000000
H     5.650000000    -0.823000000    -7.277000000
O     2.591000000     2.169000000    -2.966000000
H     2.276000000     1.510000000    -2.346000000
H     1.797000000     2.511000000    -3.376000000
O     2.914000000    -4.114000000    -6.084000000
H     2.404000000    -3.521000000    -5.532000000
H     3.821000000    -3.837000000    -5.959000000
O     4.982000000    -2.769000000    -5.243000000
H     4.348000000    -2.144000000    -4.890000000
H     5.499000000    -2.259000000    -5.867000000
O     2.794000000    -4.297000000    -8.840000000
H     2.950000000    -4.326000000    -7.896000000
H     3.626000000    -4.007000000    -9.212000000
O     0.184000000    -5.320000000    -6.389000000
H     0.798000000    -4.599000000    -6.250000000
H    -0.264000000    -5.419000000    -5.549000000
O     7.466000000     1.154000000    -4.347000000
H     7.407000000     1.882000000    -3.728000000
H     6.570000000     0.824000000    -4.415000000
O     5.013000000     0.457000000    -4.119000000
H     4.398000000    -0.244000000    -4.334000000
H     4.491000000     1.258000000    -4.169000000
O    -0.096000000     1.121000000    -7.579000000
H    -0.716000000     1.400000000    -8.252000000
H    -0.616000000     0.584000000    -6.981000000
