201
-1226.85029
C     1.936000000    -4.833000000    -0.014000000
H     0.902000000    -5.150000000     0.097000000
C     2.352000000    -3.903000000     0.947000000
C     3.723000000    -3.413000000     0.977000000
H     4.032000000    -2.574000000     1.595000000
C     1.382000000    -3.382000000     1.999000000
O     0.532000000    -4.373000000     2.553000000
H     0.734000000    -2.625000000     1.532000000
O     2.084000000    -2.906000000     3.136000000
C     1.780000000    -1.683000000     3.658000000
C     2.396000000    -0.499000000     3.178000000
H     3.205000000    -0.569000000     2.455000000
C     2.110000000     0.720000000     3.720000000
O     2.898000000     1.763000000     3.383000000
C     1.046000000     0.877000000     4.611000000
C     0.587000000     2.236000000     5.013000000
H     0.019000000     2.100000000     5.936000000
C    -0.172000000     2.993000000     3.879000000
C    -1.544000000     2.841000000     3.894000000
H    -2.056000000     2.295000000     4.683000000
H     1.428000000     2.893000000     5.242000000
C     0.294000000    -0.237000000     4.977000000
H    -0.602000000    -0.197000000     5.591000000
C     0.674000000    -1.507000000     4.529000000
C    -0.185000000    -2.701000000     4.813000000
H    -0.479000000    -2.434000000     5.830000000
H     0.535000000    -3.494000000     5.029000000
C    -1.235000000    -3.108000000     3.787000000
C    -2.527000000    -2.576000000     3.650000000
H    -2.891000000    -1.874000000     4.396000000
C    -0.826000000    -3.992000000     2.767000000
C    -1.637000000    -4.247000000     1.679000000
H    -1.195000000    -4.758000000     0.828000000
C    -2.859000000    -3.593000000     1.522000000
O    -3.514000000    -3.706000000     0.310000000
C    -3.344000000    -2.564000000    -0.605000000
C    -3.146000000    -3.009000000    -2.071000000
C    -3.485000000    -2.185000000    -3.184000000
H    -3.899000000    -1.189000000    -3.051000000
C    -2.477000000    -4.220000000    -2.304000000
H    -2.233000000    -4.867000000    -1.465000000
O    -4.405000000    -1.617000000    -0.502000000
H    -2.424000000    -2.032000000    -0.322000000
C    -3.351000000    -2.778000000     2.510000000
C    -4.657000000    -1.940000000     2.365000000
H    -5.249000000    -1.881000000     3.281000000
H    -5.262000000    -2.453000000     1.615000000
C    -4.478000000    -0.570000000     1.674000000
C    -4.235000000     0.511000000     2.475000000
H    -4.231000000     0.371000000     3.553000000
C    -4.397000000    -0.510000000     0.282000000
C    -4.294000000     0.776000000    -0.324000000
H    -4.347000000     0.838000000    -1.408000000
C    -4.227000000     1.925000000     0.480000000
O    -3.924000000     3.001000000    -0.300000000
C    -2.537000000     3.428000000    -0.271000000
C    -2.101000000     3.791000000    -1.744000000
C    -2.758000000     3.242000000    -2.841000000
H    -3.489000000     2.445000000    -2.731000000
C    -1.010000000     4.609000000    -2.003000000
H    -0.472000000     4.947000000    -1.121000000
O    -2.409000000     4.526000000     0.683000000
H    -1.845000000     2.609000000    -0.025000000
C    -4.131000000     1.796000000     1.835000000
C    -3.823000000     3.000000000     2.710000000
H    -4.232000000     2.916000000     3.719000000
H    -4.324000000     3.832000000     2.210000000
C    -2.328000000     3.343000000     2.825000000
C    -1.683000000     4.167000000     1.847000000
C    -0.278000000     4.365000000     1.864000000
H     0.279000000     4.944000000     1.131000000
C     0.431000000     3.670000000     2.881000000
O     1.760000000     3.815000000     2.905000000
C     2.422000000     2.650000000     2.327000000
H     1.745000000     2.134000000     1.630000000
C     3.598000000     3.107000000     1.469000000
C     4.624000000     2.156000000     1.199000000
H     4.528000000     1.137000000     1.563000000
C     3.615000000     4.373000000     0.886000000
H     2.770000000     5.056000000     0.901000000
C     4.694000000     4.697000000     0.022000000
O     4.653000000     5.822000000    -0.807000000
C     5.734000000     3.742000000    -0.162000000
H     6.528000000     3.966000000    -0.869000000
C     5.707000000     2.484000000     0.440000000
O     6.633000000     1.553000000     0.091000000
C     6.672000000     0.244000000     0.612000000
C     6.147000000    -0.795000000    -0.132000000
H     5.849000000    -0.613000000    -1.162000000
C     7.368000000     0.051000000     1.800000000
H     7.782000000     0.913000000     2.317000000
C     7.300000000    -1.230000000     2.339000000
H     7.698000000    -1.414000000     3.334000000
C     6.860000000    -2.301000000     1.613000000
H     6.868000000    -3.311000000     2.014000000
C     6.307000000    -2.111000000     0.365000000
O     5.825000000    -3.167000000    -0.324000000
C     4.596000000    -3.799000000    -0.065000000
C     4.158000000    -4.725000000    -1.048000000
H     4.761000000    -4.969000000    -1.918000000
C     2.884000000    -5.286000000    -0.942000000
O     2.414000000    -6.002000000    -2.024000000
C     1.225000000    -6.588000000    -2.249000000
C     0.227000000    -5.913000000    -2.977000000
H     0.409000000    -4.979000000    -3.502000000
C     0.963000000    -7.765000000    -1.608000000
H     1.791000000    -8.215000000    -1.066000000
C    -0.298000000    -8.368000000    -1.743000000
H    -0.578000000    -9.266000000    -1.198000000
C    -1.264000000    -7.837000000    -2.576000000
H    -2.202000000    -8.364000000    -2.728000000
C    -1.004000000    -6.559000000    -3.153000000
O    -2.027000000    -5.957000000    -3.907000000
C    -2.295000000    -4.660000000    -3.639000000
C    -2.702000000    -3.857000000    -4.744000000
H    -2.420000000    -4.201000000    -5.736000000
C    -3.225000000    -2.562000000    -4.511000000
O    -3.654000000    -1.704000000    -5.575000000
C    -4.194000000    -0.413000000    -5.346000000
C    -3.372000000     0.699000000    -5.422000000
H    -2.331000000     0.651000000    -5.729000000
C    -5.514000000    -0.210000000    -5.077000000
H    -6.078000000    -1.138000000    -5.130000000
C    -6.072000000     1.047000000    -4.933000000
H    -7.135000000     1.273000000    -4.967000000
C    -5.200000000     2.132000000    -4.899000000
H    -5.601000000     3.093000000    -4.589000000
C    -3.839000000     1.966000000    -5.161000000
O    -2.956000000     3.046000000    -5.277000000
C    -2.299000000     3.466000000    -4.173000000
C    -1.148000000     4.296000000    -4.351000000
H    -0.741000000     4.624000000    -5.304000000
C    -0.505000000     4.872000000    -3.254000000
O     0.663000000     5.673000000    -3.493000000
C     1.397000000     6.209000000    -2.510000000
C     1.147000000     7.555000000    -2.084000000
H     0.285000000     8.023000000    -2.552000000
C     2.014000000     8.233000000    -1.282000000
H     1.843000000     9.269000000    -1.000000000
C     3.155000000     7.665000000    -0.829000000
H     3.841000000     8.137000000    -0.131000000
C     3.463000000     6.382000000    -1.236000000
C     2.654000000     5.703000000    -2.101000000
H     2.898000000     4.701000000    -2.443000000
O     6.077000000     2.271000000    -5.135000000
H     5.393000000     1.834000000    -4.629000000
H     5.601000000     2.794000000    -5.780000000
O     8.465000000    -3.823000000    -2.343000000
H     9.127000000    -3.653000000    -3.013000000
H     7.729000000    -3.260000000    -2.584000000
O     3.166000000     1.711000000    -7.568000000
H     3.847000000     2.313000000    -7.867000000
H     2.707000000     1.451000000    -8.367000000
O     4.588000000    -1.142000000    -6.397000000
H     4.461000000    -0.240000000    -6.690000000
H     3.917000000    -1.273000000    -5.727000000
O     1.255000000    -0.079000000    -7.219000000
H     1.918000000     0.610000000    -7.181000000
H     1.458000000    -0.648000000    -6.477000000
O     2.805000000    -6.584000000    -4.690000000
H     2.743000000    -5.783000000    -5.211000000
H     2.572000000    -6.311000000    -3.803000000
O    -1.152000000     0.580000000    -7.841000000
H    -1.210000000     0.217000000    -8.725000000
H    -0.278000000     0.334000000    -7.538000000
O     1.438000000    -5.157000000    -7.998000000
H     1.906000000    -4.819000000    -7.235000000
H     1.286000000    -4.388000000    -8.547000000
O     5.542000000    -2.581000000    -8.464000000
H     5.030000000    -2.274000000    -7.716000000
H     4.994000000    -2.389000000    -9.225000000
O     0.764000000    -2.551000000    -8.794000000
H     0.703000000    -1.971000000    -8.035000000
H     1.438000000    -2.154000000    -9.345000000
O     1.863000000     3.100000000    -5.428000000
H     2.218000000     2.589000000    -6.156000000
H     1.206000000     3.667000000    -5.832000000
O     2.448000000     1.855000000    -2.833000000
H     1.775000000     1.200000000    -2.652000000
H     2.231000000     2.187000000    -3.705000000
O     5.033000000     0.814000000    -3.097000000
H     4.314000000     1.343000000    -2.751000000
H     4.630000000    -0.028000000    -3.307000000
O     2.816000000    -3.927000000    -6.074000000
H     2.599000000    -3.083000000    -5.677000000
H     3.654000000    -4.168000000    -5.681000000
O     5.437000000    -4.890000000    -4.839000000
H     6.093000000    -4.963000000    -5.533000000
H     5.498000000    -3.981000000    -4.547000000
O     7.233000000    -1.207000000    -5.872000000
H     6.326000000    -0.901000000    -5.878000000
H     7.731000000    -0.488000000    -6.263000000
O     7.827000000     0.685000000    -3.395000000
H     6.966000000     0.905000000    -3.039000000
H     7.764000000     0.902000000    -4.326000000
O     6.297000000    -2.593000000    -3.590000000
H     6.655000000    -1.969000000    -4.222000000
H     5.370000000    -2.365000000    -3.527000000
O     7.234000000    -4.398000000    -7.162000000
H     6.944000000    -5.196000000    -7.604000000
H     6.593000000    -3.735000000    -7.421000000
