201
-1256.09721
C     1.134000000    -4.500000000    -0.546000000
H     0.086000000    -4.780000000    -0.613000000
C     1.621000000    -3.859000000     0.594000000
C     2.966000000    -3.388000000     0.553000000
H     3.288000000    -2.778000000     1.393000000
C     0.723000000    -3.404000000     1.768000000
O    -0.399000000    -4.313000000     1.927000000
H     0.368000000    -2.392000000     1.524000000
O     1.546000000    -3.329000000     2.985000000
C     1.313000000    -2.208000000     3.730000000
C     2.310000000    -1.261000000     3.729000000
H     3.273000000    -1.469000000     3.270000000
C     2.083000000    -0.018000000     4.214000000
O     3.008000000     0.950000000     4.040000000
C     0.844000000     0.275000000     4.880000000
C     0.602000000     1.649000000     5.413000000
H    -0.082000000     1.651000000     6.265000000
C     0.075000000     2.480000000     4.342000000
C    -1.316000000     2.491000000     4.157000000
H    -2.029000000     1.858000000     4.680000000
H     1.508000000     2.080000000     5.844000000
C    -0.096000000    -0.745000000     5.006000000
H    -1.033000000    -0.555000000     5.523000000
C     0.049000000    -1.990000000     4.351000000
C    -0.996000000    -3.025000000     4.414000000
H    -1.545000000    -2.969000000     5.356000000
H    -0.401000000    -3.936000000     4.510000000
C    -1.976000000    -3.022000000     3.184000000
C    -3.241000000    -2.439000000     3.209000000
H    -3.520000000    -1.798000000     4.041000000
C    -1.652000000    -3.719000000     1.995000000
C    -2.459000000    -3.754000000     0.834000000
H    -2.194000000    -4.296000000    -0.071000000
C    -3.694000000    -3.106000000     0.909000000
O    -4.435000000    -2.962000000    -0.155000000
C    -4.052000000    -1.856000000    -1.026000000
C    -3.914000000    -2.226000000    -2.525000000
C    -4.139000000    -1.260000000    -3.524000000
H    -4.502000000    -0.273000000    -3.247000000
C    -3.494000000    -3.485000000    -2.828000000
H    -3.423000000    -4.226000000    -2.037000000
O    -4.970000000    -0.729000000    -0.849000000
H    -3.016000000    -1.598000000    -0.757000000
C    -3.978000000    -2.315000000     2.024000000
C    -5.188000000    -1.407000000     2.103000000
H    -5.652000000    -1.311000000     3.087000000
H    -5.992000000    -1.837000000     1.503000000
C    -4.752000000    -0.013000000     1.490000000
C    -4.375000000     0.981000000     2.402000000
H    -4.499000000     0.838000000     3.472000000
C    -4.626000000     0.205000000     0.134000000
C    -4.027000000     1.289000000    -0.382000000
H    -3.769000000     1.322000000    -1.437000000
C    -3.605000000     2.278000000     0.546000000
O    -3.031000000     3.417000000    -0.033000000
C    -1.612000000     3.523000000    -0.123000000
C    -1.119000000     3.996000000    -1.468000000
C    -1.726000000     3.462000000    -2.686000000
H    -2.567000000     2.777000000    -2.615000000
C    -0.006000000     4.854000000    -1.577000000
H     0.397000000     5.201000000    -0.629000000
O    -1.289000000     4.475000000     0.952000000
H    -1.166000000     2.524000000    -0.008000000
C    -3.851000000     2.161000000     1.938000000
C    -3.379000000     3.308000000     2.871000000
H    -3.920000000     3.278000000     3.819000000
H    -3.625000000     4.311000000     2.516000000
C    -1.885000000     3.290000000     3.100000000
C    -1.025000000     3.983000000     2.209000000
C     0.367000000     3.897000000     2.408000000
H     1.060000000     4.266000000     1.656000000
C     0.903000000     3.227000000     3.494000000
O     2.231000000     3.047000000     3.490000000
C     2.787000000     1.840000000     2.973000000
H     2.028000000     1.414000000     2.301000000
C     4.072000000     2.120000000     2.174000000
C     5.169000000     1.323000000     2.203000000
H     5.208000000     0.499000000     2.911000000
C     4.015000000     3.108000000     1.195000000
H     3.158000000     3.769000000     1.093000000
C     5.116000000     3.376000000     0.391000000
O     5.262000000     4.546000000    -0.265000000
C     6.287000000     2.625000000     0.443000000
H     7.049000000     2.867000000    -0.294000000
C     6.304000000     1.584000000     1.362000000
O     7.218000000     0.619000000     1.415000000
C     6.944000000    -0.724000000     1.355000000
C     5.996000000    -1.247000000     0.477000000
H     5.515000000    -0.562000000    -0.216000000
C     7.604000000    -1.616000000     2.203000000
H     8.283000000    -1.199000000     2.942000000
C     7.384000000    -2.986000000     2.141000000
H     7.774000000    -3.680000000     2.881000000
C     6.491000000    -3.487000000     1.195000000
H     6.433000000    -4.553000000     0.989000000
C     5.738000000    -2.596000000     0.376000000
O     5.084000000    -3.143000000    -0.655000000
C     3.811000000    -3.617000000    -0.556000000
C     3.338000000    -4.429000000    -1.588000000
H     4.021000000    -4.922000000    -2.276000000
C     2.042000000    -4.879000000    -1.539000000
O     1.605000000    -5.770000000    -2.523000000
C     0.326000000    -6.141000000    -2.760000000
C    -0.566000000    -5.432000000    -3.607000000
H    -0.164000000    -4.539000000    -4.079000000
C    -0.174000000    -7.224000000    -2.013000000
H     0.514000000    -7.676000000    -1.303000000
C    -1.494000000    -7.759000000    -2.301000000
H    -1.918000000    -8.647000000    -1.840000000
C    -2.356000000    -7.079000000    -3.177000000
H    -3.321000000    -7.447000000    -3.514000000
C    -1.930000000    -5.827000000    -3.704000000
O    -2.743000000    -5.109000000    -4.555000000
C    -3.179000000    -3.828000000    -4.121000000
C    -3.323000000    -2.904000000    -5.144000000
H    -3.055000000    -3.160000000    -6.166000000
C    -3.903000000    -1.646000000    -4.897000000
O    -4.154000000    -0.795000000    -5.899000000
C    -4.038000000     0.542000000    -5.772000000
C    -2.814000000     1.145000000    -5.465000000
H    -1.905000000     0.556000000    -5.365000000
C    -5.190000000     1.320000000    -5.863000000
H    -6.143000000     0.909000000    -6.184000000
C    -5.045000000     2.718000000    -5.763000000
H    -5.973000000     3.284000000    -5.736000000
C    -3.883000000     3.276000000    -5.330000000
H    -3.854000000     4.324000000    -5.040000000
C    -2.706000000     2.521000000    -5.265000000
O    -1.496000000     3.112000000    -5.019000000
C    -1.158000000     3.777000000    -3.919000000
C    -0.070000000     4.648000000    -4.003000000
H     0.345000000     4.881000000    -4.980000000
C     0.411000000     5.234000000    -2.875000000
O     1.554000000     5.977000000    -3.095000000
C     2.446000000     6.144000000    -2.060000000
C     2.523000000     7.373000000    -1.461000000
H     1.851000000     8.158000000    -1.798000000
C     3.299000000     7.573000000    -0.357000000
H     3.189000000     8.534000000     0.140000000
C     4.150000000     6.602000000     0.113000000
H     4.724000000     6.799000000     1.015000000
C     4.184000000     5.391000000    -0.612000000
C     3.359000000     5.130000000    -1.715000000
H     3.446000000     4.200000000    -2.270000000
O     5.215000000    -6.127000000    -4.905000000
H     5.572000000    -5.265000000    -4.692000000
H     5.821000000    -6.745000000    -4.494000000
O     2.798000000     0.245000000    -5.271000000
H     2.562000000     0.928000000    -5.899000000
H     2.234000000    -0.494000000    -5.497000000
O     2.452000000    -2.432000000    -7.644000000
H     2.478000000    -2.225000000    -6.710000000
H     3.134000000    -1.882000000    -8.031000000
O     4.585000000    -2.722000000    -3.983000000
H     3.685000000    -2.923000000    -4.239000000
H     4.574000000    -2.749000000    -3.027000000
O    -0.308000000    -0.182000000    -7.394000000
H    -1.121000000    -0.640000000    -7.607000000
H    -0.090000000    -0.480000000    -6.511000000
O     2.496000000    -4.924000000    -5.324000000
H     3.121000000    -5.262000000    -4.682000000
H     2.200000000    -4.092000000    -4.955000000
O     0.368000000    -7.288000000    -6.090000000
H     0.173000000    -6.351000000    -6.121000000
H     1.166000000    -7.349000000    -5.566000000
O    -1.907000000    -5.630000000    -7.460000000
H    -2.022000000    -5.854000000    -6.536000000
H    -1.667000000    -4.704000000    -7.454000000
O     5.419000000    -0.015000000    -3.700000000
H     5.653000000    -0.937000000    -3.591000000
H     4.628000000    -0.031000000    -4.239000000
O     3.441000000     3.078000000    -5.747000000
H     2.632000000     3.589000000    -5.707000000
H     3.906000000     3.302000000    -4.941000000
O     0.601000000     2.716000000    -6.815000000
H     0.131000000     2.601000000    -5.990000000
H     0.341000000     1.963000000    -7.346000000
O     5.069000000    -4.311000000    -6.934000000
H     4.228000000    -3.870000000    -6.817000000
H     5.035000000    -5.056000000    -6.334000000
O    -0.552000000    -3.165000000    -7.058000000
H     0.048000000    -2.789000000    -7.703000000
H    -0.388000000    -2.663000000    -6.259000000
O     7.209000000    -0.795000000    -5.752000000
H     7.201000000     0.162000000    -5.729000000
H     6.508000000    -1.055000000    -5.155000000
O     0.541000000     0.487000000   -10.191000000
H     0.537000000     0.505000000    -9.234000000
H     1.467000000     0.539000000   -10.427000000
O     1.620000000    -4.374000000    -9.434000000
H     1.926000000    -3.723000000    -8.802000000
H     0.930000000    -3.928000000    -9.924000000
O    -3.057000000    -1.111000000    -8.407000000
H    -3.738000000    -1.113000000    -7.734000000
H    -3.243000000    -1.885000000    -8.938000000
O     2.330000000     1.598000000    -2.660000000
H     1.817000000     0.945000000    -2.184000000
H     2.430000000     1.230000000    -3.538000000
O     3.043000000    -7.788000000    -5.127000000
H     2.875000000    -7.061000000    -5.726000000
H     3.873000000    -7.565000000    -4.705000000
