201
-1282.30170
C     1.263000000    -5.442000000     0.167000000
H     0.189000000    -5.536000000     0.305000000
C     1.873000000    -4.506000000     1.030000000
C     3.252000000    -4.223000000     0.850000000
H     3.717000000    -3.513000000     1.530000000
C     1.084000000    -3.600000000     2.033000000
O    -0.144000000    -4.265000000     2.389000000
H     0.709000000    -2.651000000     1.621000000
O     1.904000000    -3.265000000     3.162000000
C     1.727000000    -2.016000000     3.714000000
C     2.688000000    -1.035000000     3.459000000
H     3.615000000    -1.227000000     2.925000000
C     2.577000000     0.266000000     3.925000000
O     3.521000000     1.185000000     3.480000000
C     1.424000000     0.623000000     4.658000000
C     1.135000000     2.088000000     5.067000000
H     0.478000000     2.163000000     5.936000000
C     0.462000000     2.945000000     3.963000000
C    -0.917000000     3.106000000     3.958000000
H    -1.543000000     2.619000000     4.700000000
H     2.051000000     2.599000000     5.371000000
C     0.412000000    -0.350000000     4.867000000
H    -0.470000000    -0.077000000     5.441000000
C     0.586000000    -1.672000000     4.455000000
C    -0.481000000    -2.705000000     4.814000000
H    -0.894000000    -2.404000000     5.779000000
H    -0.056000000    -3.693000000     5.003000000
C    -1.472000000    -2.808000000     3.750000000
C    -2.576000000    -1.947000000     3.767000000
H    -2.786000000    -1.295000000     4.611000000
C    -1.245000000    -3.545000000     2.570000000
C    -2.162000000    -3.472000000     1.501000000
H    -1.923000000    -4.152000000     0.688000000
C    -3.359000000    -2.764000000     1.583000000
O    -4.133000000    -2.683000000     0.471000000
C    -3.932000000    -1.551000000    -0.409000000
C    -3.817000000    -1.980000000    -1.858000000
C    -4.236000000    -1.128000000    -2.853000000
H    -4.769000000    -0.207000000    -2.633000000
C    -3.216000000    -3.197000000    -2.135000000
H    -2.821000000    -3.852000000    -1.363000000
O    -5.055000000    -0.627000000    -0.137000000
H    -3.008000000    -1.028000000    -0.120000000
C    -3.552000000    -1.952000000     2.705000000
C    -4.749000000    -0.975000000     2.783000000
H    -4.957000000    -0.763000000     3.834000000
H    -5.602000000    -1.487000000     2.335000000
C    -4.508000000     0.317000000     2.041000000
C    -3.953000000     1.398000000     2.766000000
H    -3.869000000     1.430000000     3.849000000
C    -4.704000000     0.431000000     0.663000000
C    -4.297000000     1.552000000     0.049000000
H    -4.526000000     1.747000000    -0.996000000
C    -3.802000000     2.653000000     0.751000000
O    -3.332000000     3.667000000     0.006000000
C    -1.907000000     3.835000000    -0.147000000
C    -1.496000000     4.034000000    -1.590000000
C    -2.422000000     3.780000000    -2.597000000
H    -3.493000000     3.771000000    -2.410000000
C    -0.128000000     4.119000000    -1.864000000
H     0.547000000     4.320000000    -1.036000000
O    -1.463000000     4.869000000     0.802000000
H    -1.395000000     2.902000000     0.133000000
C    -3.660000000     2.636000000     2.178000000
C    -3.100000000     3.799000000     2.998000000
H    -3.337000000     3.753000000     4.063000000
H    -3.484000000     4.743000000     2.607000000
C    -1.570000000     3.806000000     2.987000000
C    -0.802000000     4.372000000     1.910000000
C     0.609000000     4.233000000     1.892000000
H     1.241000000     4.734000000     1.163000000
C     1.200000000     3.545000000     2.938000000
O     2.563000000     3.293000000     2.912000000
C     3.061000000     2.043000000     2.386000000
H     2.269000000     1.482000000     1.868000000
C     4.216000000     2.243000000     1.395000000
C     4.909000000     1.095000000     0.949000000
H     4.644000000     0.103000000     1.306000000
C     4.457000000     3.472000000     0.845000000
H     3.858000000     4.352000000     1.064000000
C     5.398000000     3.594000000    -0.153000000
O     5.445000000     4.827000000    -0.812000000
C     6.071000000     2.479000000    -0.661000000
H     6.707000000     2.655000000    -1.525000000
C     5.798000000     1.210000000    -0.095000000
O     6.317000000     0.079000000    -0.652000000
C     6.423000000    -1.152000000     0.068000000
C     5.758000000    -2.304000000    -0.350000000
H     5.013000000    -2.247000000    -1.139000000
C     7.264000000    -1.218000000     1.157000000
H     7.839000000    -0.328000000     1.397000000
C     7.527000000    -2.469000000     1.822000000
H     8.301000000    -2.522000000     2.583000000
C     6.824000000    -3.610000000     1.455000000
H     6.910000000    -4.546000000     2.001000000
C     5.993000000    -3.524000000     0.311000000
O     5.377000000    -4.644000000    -0.154000000
C     4.058000000    -4.894000000    -0.061000000
C     3.384000000    -5.800000000    -0.942000000
H     3.920000000    -6.357000000    -1.705000000
C     2.055000000    -6.057000000    -0.849000000
O     1.490000000    -6.833000000    -1.750000000
C     0.136000000    -6.725000000    -2.133000000
C    -0.361000000    -5.602000000    -2.705000000
H     0.306000000    -4.763000000    -2.888000000
C    -0.687000000    -7.799000000    -1.821000000
H    -0.287000000    -8.724000000    -1.412000000
C    -2.073000000    -7.701000000    -2.125000000
H    -2.702000000    -8.549000000    -1.867000000
C    -2.596000000    -6.618000000    -2.766000000
H    -3.623000000    -6.601000000    -3.121000000
C    -1.709000000    -5.531000000    -3.023000000
O    -2.199000000    -4.573000000    -3.832000000
C    -2.932000000    -3.472000000    -3.480000000
C    -3.297000000    -2.599000000    -4.484000000
H    -3.108000000    -2.829000000    -5.530000000
C    -3.987000000    -1.394000000    -4.219000000
O    -4.376000000    -0.611000000    -5.296000000
C    -4.773000000     0.714000000    -5.065000000
C    -3.732000000     1.640000000    -4.908000000
H    -2.703000000     1.298000000    -4.976000000
C    -6.124000000     1.164000000    -5.025000000
H    -6.933000000     0.442000000    -5.099000000
C    -6.348000000     2.532000000    -5.046000000
H    -7.395000000     2.818000000    -5.098000000
C    -5.340000000     3.454000000    -4.907000000
H    -5.658000000     4.492000000    -4.841000000
C    -4.003000000     3.029000000    -4.858000000
O    -2.906000000     3.844000000    -4.917000000
C    -1.973000000     3.915000000    -3.914000000
C    -0.610000000     4.001000000    -4.218000000
H    -0.296000000     3.985000000    -5.258000000
C     0.297000000     4.029000000    -3.194000000
O     1.613000000     3.885000000    -3.538000000
C     2.487000000     4.800000000    -2.994000000
C     2.339000000     6.174000000    -3.137000000
H     1.575000000     6.644000000    -3.752000000
C     3.169000000     7.103000000    -2.531000000
H     3.050000000     8.164000000    -2.737000000
C     4.126000000     6.644000000    -1.666000000
H     4.763000000     7.351000000    -1.140000000
C     4.343000000     5.277000000    -1.540000000
C     3.568000000     4.420000000    -2.271000000
H     3.898000000     3.384000000    -2.244000000
O     7.922000000    -2.059000000    -3.102000000
H     7.508000000    -2.861000000    -2.785000000
H     7.192000000    -1.501000000    -3.369000000
O     1.015000000     0.906000000    -8.334000000
H     1.441000000     0.508000000    -7.575000000
H     1.731000000     1.085000000    -8.944000000
O     5.598000000    -1.991000000    -6.379000000
H     6.372000000    -2.548000000    -6.292000000
H     5.508000000    -1.572000000    -5.523000000
O     7.095000000    -4.517000000    -2.795000000
H     6.692000000    -4.957000000    -3.544000000
H     6.684000000    -4.920000000    -2.031000000
O     1.819000000    -6.919000000    -5.243000000
H     1.992000000    -7.617000000    -4.611000000
H     2.106000000    -6.119000000    -4.802000000
O     3.113000000    -1.814000000    -7.668000000
H     3.946000000    -1.780000000    -7.198000000
H     2.449000000    -1.684000000    -6.991000000
O     5.650000000    -0.813000000    -3.913000000
H     4.762000000    -1.170000000    -3.895000000
H     5.526000000     0.136000000    -3.914000000
O     2.803000000    -4.524000000    -4.250000000
H     3.001000000    -3.616000000    -4.482000000
H     3.613000000    -4.854000000    -3.862000000
O    -0.972000000     2.634000000    -7.930000000
H    -1.622000000     1.943000000    -8.055000000
H    -0.132000000     2.207000000    -8.098000000
O     0.383000000    -4.001000000    -5.457000000
H     1.161000000    -4.055000000    -4.902000000
H    -0.024000000    -4.864000000    -5.384000000
O    -0.638000000    -1.276000000    -9.261000000
H    -0.770000000    -1.873000000    -8.524000000
H    -0.192000000    -0.520000000    -8.879000000
O     4.303000000     0.882000000    -6.639000000
H     3.909000000     0.322000000    -5.970000000
H     4.996000000     0.345000000    -7.023000000
O     2.143000000    -2.163000000   -10.258000000
H     1.247000000    -1.929000000   -10.015000000
H     2.679000000    -1.847000000    -9.531000000
O    -0.258000000    -1.818000000    -6.647000000
H    -0.235000000    -2.641000000    -6.158000000
H     0.332000000    -1.237000000    -6.166000000
O     2.976000000    -4.968000000    -8.071000000
H     2.336000000    -4.969000000    -7.360000000
H     3.108000000    -4.042000000    -8.275000000
O     5.600000000     1.936000000    -4.151000000
H     4.879000000     2.497000000    -4.438000000
H     6.336000000     2.535000000    -4.028000000
O     7.906000000     1.179000000    -5.746000000
H     7.784000000     1.972000000    -5.224000000
H     7.048000000     0.756000000    -5.743000000
O     5.776000000    -5.216000000    -5.025000000
H     6.369000000    -4.725000000    -5.593000000
H     5.722000000    -6.083000000    -5.427000000
O     3.262000000     3.179000000    -5.664000000
H     2.655000000     2.812000000    -5.021000000
H     3.536000000     2.429000000    -6.191000000
