201
-1255.66917
C    -4.719000000    -1.572000000    -2.102000000
H    -4.468000000    -1.000000000    -2.992000000
C    -4.711000000    -0.939000000    -0.870000000
C    -5.001000000    -1.662000000     0.310000000
H    -4.866000000    -1.126000000     1.246000000
C    -4.258000000     0.507000000    -0.809000000
O    -4.433000000     1.189000000    -2.003000000
H    -3.180000000     0.496000000    -0.590000000
O    -4.897000000     1.293000000     0.247000000
C    -4.176000000     2.090000000     1.085000000
C    -3.728000000     1.642000000     2.369000000
H    -3.999000000     0.658000000     2.743000000
C    -2.870000000     2.360000000     3.114000000
O    -2.433000000     1.798000000     4.304000000
C    -2.255000000     3.566000000     2.656000000
C    -1.221000000     4.292000000     3.446000000
H    -1.266000000     5.358000000     3.211000000
C     0.126000000     3.792000000     3.048000000
C     0.826000000     4.409000000     2.019000000
H     0.435000000     5.340000000     1.618000000
H    -1.440000000     4.161000000     4.507000000
C    -2.617000000     3.990000000     1.377000000
H    -2.188000000     4.937000000     1.060000000
C    -3.506000000     3.227000000     0.584000000
C    -3.871000000     3.800000000    -0.799000000
H    -3.757000000     4.884000000    -0.865000000
H    -4.913000000     3.538000000    -0.996000000
C    -3.037000000     3.222000000    -1.880000000
C    -1.947000000     3.906000000    -2.472000000
H    -1.581000000     4.857000000    -2.093000000
C    -3.345000000     1.942000000    -2.394000000
C    -2.431000000     1.418000000    -3.340000000
H    -2.669000000     0.452000000    -3.777000000
C    -1.339000000     2.043000000    -3.892000000
O    -0.517000000     1.327000000    -4.629000000
C     0.749000000     0.885000000    -4.065000000
C     1.162000000    -0.548000000    -4.546000000
C     2.499000000    -1.012000000    -4.544000000
H     3.305000000    -0.309000000    -4.350000000
C     0.105000000    -1.405000000    -4.884000000
H    -0.931000000    -1.106000000    -4.747000000
O     1.842000000     1.809000000    -4.205000000
H     0.506000000     0.707000000    -3.007000000
C    -1.090000000     3.322000000    -3.407000000
C     0.116000000     4.132000000    -3.788000000
H    -0.115000000     5.199000000    -3.799000000
H     0.487000000     3.901000000    -4.789000000
C     1.287000000     3.764000000    -2.878000000
C     1.630000000     4.507000000    -1.692000000
H     1.117000000     5.410000000    -1.371000000
C     2.096000000     2.662000000    -3.215000000
C     3.161000000     2.298000000    -2.427000000
H     3.717000000     1.405000000    -2.701000000
C     3.388000000     2.866000000    -1.213000000
O     4.340000000     2.303000000    -0.471000000
C     3.813000000     1.503000000     0.684000000
C     4.572000000     0.149000000     0.857000000
C     5.300000000    -0.375000000    -0.240000000
H     5.675000000     0.188000000    -1.091000000
C     4.396000000    -0.595000000     2.035000000
H     4.091000000    -0.036000000     2.916000000
O     3.815000000     2.246000000     1.897000000
H     2.801000000     1.133000000     0.466000000
C     2.576000000     3.952000000    -0.800000000
C     2.787000000     4.646000000     0.536000000
H     2.342000000     5.641000000     0.469000000
H     3.834000000     4.872000000     0.747000000
C     2.077000000     3.980000000     1.635000000
C     2.601000000     2.828000000     2.245000000
C     1.904000000     2.143000000     3.220000000
H     2.176000000     1.208000000     3.702000000
C     0.630000000     2.665000000     3.659000000
O    -0.075000000     1.938000000     4.608000000
C    -1.205000000     1.113000000     4.145000000
H    -1.002000000     0.828000000     3.102000000
C    -1.092000000    -0.256000000     4.899000000
C    -2.174000000    -1.160000000     4.682000000
H    -3.061000000    -0.862000000     4.130000000
C     0.096000000    -0.662000000     5.460000000
H     0.886000000     0.060000000     5.651000000
C     0.235000000    -1.986000000     5.885000000
O     1.382000000    -2.378000000     6.592000000
C    -0.817000000    -2.911000000     5.757000000
H    -0.627000000    -3.929000000     6.086000000
C    -2.043000000    -2.451000000     5.204000000
O    -3.027000000    -3.368000000     5.104000000
C    -4.205000000    -3.070000000     4.500000000
C    -4.433000000    -3.459000000     3.227000000
H    -3.537000000    -3.840000000     2.743000000
C    -5.221000000    -2.296000000     5.123000000
H    -5.126000000    -1.827000000     6.099000000
C    -6.473000000    -2.029000000     4.502000000
H    -7.260000000    -1.496000000     5.030000000
C    -6.711000000    -2.621000000     3.251000000
H    -7.734000000    -2.481000000     2.914000000
C    -5.646000000    -3.266000000     2.578000000
O    -5.660000000    -3.717000000     1.287000000
C    -5.350000000    -2.998000000     0.148000000
C    -5.388000000    -3.610000000    -1.126000000
H    -5.612000000    -4.674000000    -1.114000000
C    -5.060000000    -2.913000000    -2.265000000
O    -4.854000000    -3.533000000    -3.497000000
C    -4.020000000    -3.070000000    -4.465000000
C    -2.752000000    -3.519000000    -4.472000000
H    -2.318000000    -4.238000000    -3.781000000
C    -4.504000000    -2.230000000    -5.469000000
H    -5.550000000    -1.934000000    -5.468000000
C    -3.726000000    -1.870000000    -6.546000000
H    -4.185000000    -1.375000000    -7.398000000
C    -2.422000000    -2.306000000    -6.516000000
H    -1.836000000    -2.001000000    -7.379000000
C    -1.958000000    -3.162000000    -5.484000000
O    -0.638000000    -3.573000000    -5.527000000
C     0.391000000    -2.730000000    -5.164000000
C     1.703000000    -3.180000000    -5.244000000
H     1.924000000    -4.185000000    -5.593000000
C     2.764000000    -2.330000000    -4.928000000
O     4.045000000    -2.730000000    -5.265000000
C     5.157000000    -2.271000000    -4.582000000
C     5.277000000    -2.356000000    -3.145000000
H     4.493000000    -2.844000000    -2.572000000
C     6.129000000    -1.513000000    -5.270000000
H     6.037000000    -1.353000000    -6.341000000
C     7.190000000    -1.011000000    -4.521000000
H     7.973000000    -0.483000000    -5.059000000
C     7.432000000    -1.281000000    -3.186000000
H     8.344000000    -0.961000000    -2.689000000
C     6.453000000    -1.964000000    -2.469000000
O     6.602000000    -2.212000000    -1.128000000
C     5.787000000    -1.693000000    -0.137000000
C     5.534000000    -2.457000000     0.973000000
H     5.971000000    -3.433000000     1.171000000
C     4.896000000    -1.929000000     2.061000000
O     4.917000000    -2.722000000     3.189000000
C     4.378000000    -2.357000000     4.410000000
C     5.271000000    -1.729000000     5.286000000
H     6.312000000    -1.684000000     4.977000000
C     4.837000000    -1.221000000     6.518000000
H     5.657000000    -0.948000000     7.178000000
C     3.536000000    -1.435000000     6.926000000
H     3.087000000    -1.058000000     7.841000000
C     2.683000000    -2.139000000     6.091000000
C     3.106000000    -2.675000000     4.901000000
H     2.371000000    -3.095000000     4.220000000
O    -3.240000000    -7.258000000    -1.266000000
H    -3.228000000    -6.834000000    -2.124000000
H    -2.889000000    -6.599000000    -0.668000000
O    -1.521000000    -8.861000000     2.123000000
H    -1.766000000    -8.040000000     2.551000000
H    -1.864000000    -9.544000000     2.699000000
O     1.018000000    -9.677000000     3.001000000
H     0.916000000    -9.065000000     3.730000000
H     0.422000000    -9.348000000     2.327000000
O    -0.529000000    -7.479000000    -0.157000000
H    -0.918000000    -8.015000000     0.533000000
H    -1.163000000    -6.776000000    -0.301000000
O    -4.221000000    -6.317000000     1.647000000
H    -3.420000000    -5.840000000     1.863000000
H    -4.882000000    -5.635000000     1.529000000
O    -0.940000000    -8.311000000    -2.757000000
H    -1.826000000    -7.970000000    -2.885000000
H    -0.787000000    -8.231000000    -1.816000000
O    -4.418000000   -10.147000000     1.101000000
H    -3.778000000    -9.515000000     0.773000000
H    -4.935000000    -9.656000000     1.739000000
O    -3.867000000    -5.578000000     7.207000000
H    -3.312000000    -5.388000000     6.451000000
H    -3.276000000    -5.983000000     7.842000000
O     1.177000000    -6.235000000    -1.641000000
H     0.592000000    -6.819000000    -1.159000000
H     1.140000000    -6.550000000    -2.545000000
O    -1.150000000    -6.508000000     4.605000000
H    -1.060000000    -5.759000000     4.016000000
H    -1.916000000    -6.979000000     4.278000000
O     1.225000000    -8.294000000     5.275000000
H     0.469000000    -7.714000000     5.356000000
H     1.974000000    -7.747000000     5.511000000
O    -5.910000000    -8.478000000    -1.364000000
H    -5.174000000    -7.868000000    -1.327000000
H    -5.573000000    -9.284000000    -0.972000000
O    -3.652000000    -7.163000000    -4.028000000
H    -3.809000000    -8.017000000    -4.431000000
H    -4.137000000    -6.547000000    -4.577000000
O     0.955000000    -6.323000000     2.025000000
H     0.328000000    -5.611000000     2.149000000
H     0.626000000    -6.802000000     1.264000000
O     1.341000000    -3.405000000    -0.902000000
H     0.722000000    -2.763000000    -0.554000000
H     0.791000000    -4.126000000    -1.208000000
O     3.226000000    -4.954000000     0.943000000
H     2.398000000    -5.415000000     1.077000000
H     2.972000000    -4.042000000     0.800000000
O    -7.111000000    -6.905000000     3.487000000
H    -8.015000000    -7.217000000     3.516000000
H    -7.040000000    -6.456000000     2.644000000
O    -3.611000000    -7.353000000     4.107000000
H    -4.269000000    -7.941000000     4.478000000
H    -3.938000000    -7.151000000     3.231000000
O     2.423000000    -5.773000000     4.862000000
H     3.219000000    -5.439000000     4.448000000
H     1.931000000    -6.173000000     4.145000000
