201
-1239.99879
C     2.542000000    -3.967000000     2.105000000
H     1.502000000    -4.259000000     2.223000000
C     2.976000000    -2.812000000     2.795000000
C     4.305000000    -2.332000000     2.675000000
H     4.627000000    -1.380000000     3.089000000
C     1.985000000    -1.893000000     3.419000000
O     0.920000000    -2.647000000     3.967000000
H     1.585000000    -1.241000000     2.628000000
O     2.545000000    -1.079000000     4.440000000
C     2.267000000     0.269000000     4.321000000
C     2.968000000     1.071000000     3.389000000
H     3.806000000     0.632000000     2.855000000
C     2.556000000     2.374000000     3.205000000
O     3.184000000     3.100000000     2.241000000
C     1.391000000     2.849000000     3.776000000
C     0.800000000     4.201000000     3.532000000
H     0.140000000     4.491000000     4.351000000
C    -0.081000000     4.127000000     2.302000000
C    -1.414000000     4.075000000     2.376000000
H    -1.903000000     3.890000000     3.329000000
H     1.554000000     4.981000000     3.403000000
C     0.614000000     1.989000000     4.560000000
H    -0.406000000     2.278000000     4.801000000
C     1.024000000     0.668000000     4.776000000
C     0.105000000    -0.246000000     5.568000000
H    -0.557000000     0.318000000     6.228000000
H     0.638000000    -0.905000000     6.257000000
C    -0.790000000    -0.992000000     4.586000000
C    -2.137000000    -0.571000000     4.412000000
H    -2.484000000     0.375000000     4.820000000
C    -0.311000000    -2.113000000     3.895000000
C    -1.101000000    -2.778000000     2.927000000
H    -0.806000000    -3.564000000     2.238000000
C    -2.442000000    -2.470000000     2.873000000
O    -3.262000000    -3.129000000     1.906000000
C    -3.401000000    -2.376000000     0.624000000
C    -3.298000000    -3.337000000    -0.535000000
C    -4.024000000    -3.067000000    -1.704000000
H    -4.742000000    -2.251000000    -1.726000000
C    -2.304000000    -4.255000000    -0.509000000
H    -1.539000000    -4.227000000     0.262000000
O    -4.716000000    -1.863000000     0.649000000
H    -2.650000000    -1.594000000     0.442000000
C    -2.920000000    -1.246000000     3.534000000
C    -4.373000000    -0.797000000     3.384000000
H    -4.646000000    -0.187000000     4.248000000
H    -5.007000000    -1.685000000     3.405000000
C    -4.567000000     0.042000000     2.127000000
C    -4.337000000     1.421000000     2.268000000
H    -4.095000000     1.908000000     3.209000000
C    -4.824000000    -0.504000000     0.839000000
C    -4.823000000     0.358000000    -0.248000000
H    -4.907000000     0.086000000    -1.297000000
C    -4.500000000     1.713000000    -0.083000000
O    -4.243000000     2.509000000    -1.217000000
C    -2.915000000     2.711000000    -1.587000000
C    -2.674000000     2.432000000    -3.128000000
C    -3.577000000     1.673000000    -3.830000000
H    -4.472000000     1.309000000    -3.333000000
C    -1.458000000     2.857000000    -3.739000000
H    -0.727000000     3.451000000    -3.196000000
O    -2.350000000     3.953000000    -1.212000000
H    -2.334000000     1.956000000    -1.036000000
C    -4.181000000     2.238000000     1.172000000
C    -3.728000000     3.746000000     1.379000000
H    -4.067000000     4.155000000     2.333000000
H    -4.179000000     4.395000000     0.625000000
C    -2.292000000     4.063000000     1.267000000
C    -1.693000000     4.115000000     0.010000000
C    -0.338000000     4.173000000    -0.099000000
H     0.124000000     4.182000000    -1.083000000
C     0.486000000     4.215000000     1.018000000
O     1.800000000     4.380000000     0.777000000
C     2.640000000     3.251000000     0.891000000
H     2.004000000     2.380000000     0.675000000
C     3.725000000     3.325000000    -0.173000000
C     4.844000000     2.491000000     0.071000000
H     5.208000000     2.175000000     1.046000000
C     3.380000000     3.698000000    -1.500000000
H     2.486000000     4.313000000    -1.573000000
C     4.169000000     3.313000000    -2.575000000
O     4.010000000     3.622000000    -3.917000000
C     5.202000000     2.455000000    -2.309000000
H     5.805000000     2.109000000    -3.145000000
C     5.591000000     2.080000000    -1.000000000
O     6.676000000     1.298000000    -0.759000000
C     7.059000000     0.610000000     0.397000000
C     6.505000000    -0.607000000     0.701000000
H     5.747000000    -0.921000000    -0.012000000
C     8.192000000     1.060000000     1.098000000
H     8.731000000     1.919000000     0.708000000
C     8.724000000     0.288000000     2.083000000
H     9.546000000     0.632000000     2.706000000
C     8.170000000    -0.967000000     2.315000000
H     8.637000000    -1.586000000     3.076000000
C     7.018000000    -1.400000000     1.719000000
O     6.599000000    -2.725000000     1.904000000
C     5.252000000    -3.136000000     1.954000000
C     4.836000000    -4.300000000     1.314000000
H     5.538000000    -4.922000000     0.764000000
C     3.492000000    -4.773000000     1.423000000
O     3.108000000    -5.919000000     0.757000000
C     1.765000000    -6.311000000     0.698000000
C     1.011000000    -5.858000000    -0.401000000
H     1.398000000    -5.065000000    -1.036000000
C     1.206000000    -7.132000000     1.697000000
H     1.874000000    -7.555000000     2.443000000
C    -0.127000000    -7.571000000     1.482000000
H    -0.526000000    -8.254000000     2.227000000
C    -0.847000000    -7.223000000     0.328000000
H    -1.852000000    -7.616000000     0.195000000
C    -0.266000000    -6.353000000    -0.628000000
O    -1.073000000    -5.962000000    -1.740000000
C    -2.142000000    -5.133000000    -1.566000000
C    -3.023000000    -5.036000000    -2.659000000
H    -2.873000000    -5.722000000    -3.489000000
C    -3.936000000    -4.038000000    -2.728000000
O    -4.547000000    -3.854000000    -3.981000000
C    -5.128000000    -2.663000000    -4.361000000
C    -4.410000000    -1.540000000    -4.881000000
H    -3.331000000    -1.601000000    -5.002000000
C    -6.510000000    -2.571000000    -4.218000000
H    -6.985000000    -3.464000000    -3.819000000
C    -7.158000000    -1.404000000    -4.575000000
H    -8.230000000    -1.381000000    -4.397000000
C    -6.494000000    -0.316000000    -5.046000000
H    -6.987000000     0.595000000    -5.377000000
C    -5.090000000    -0.381000000    -5.189000000
O    -4.424000000     0.616000000    -5.734000000
C    -3.419000000     1.323000000    -5.140000000
C    -2.253000000     1.712000000    -5.810000000
H    -2.169000000     1.311000000    -6.817000000
C    -1.306000000     2.486000000    -5.102000000
O    -0.207000000     2.962000000    -5.753000000
C     0.760000000     3.829000000    -5.233000000
C     0.556000000     5.226000000    -5.259000000
H    -0.336000000     5.602000000    -5.755000000
C     1.593000000     6.113000000    -4.894000000
H     1.484000000     7.180000000    -5.068000000
C     2.733000000     5.544000000    -4.331000000
H     3.584000000     6.143000000    -4.019000000
C     2.875000000     4.167000000    -4.384000000
C     1.937000000     3.254000000    -4.801000000
H     2.156000000     2.190000000    -4.845000000
O     5.706000000    -7.264000000    -3.192000000
H     5.396000000    -6.419000000    -3.517000000
H     6.103000000    -7.683000000    -3.956000000
O     4.847000000    -0.985000000    -8.686000000
H     4.414000000    -0.290000000    -8.190000000
H     4.640000000    -1.787000000    -8.206000000
O     7.924000000    -4.906000000    -2.375000000
H     7.098000000    -4.559000000    -2.038000000
H     7.913000000    -4.688000000    -3.307000000
O     5.671000000    -6.035000000    -5.927000000
H     4.998000000    -5.775000000    -5.298000000
H     5.334000000    -5.741000000    -6.773000000
O    -1.641000000    -1.623000000    -7.760000000
H    -1.390000000    -1.672000000    -6.837000000
H    -0.851000000    -1.320000000    -8.207000000
O     5.779000000    -3.400000000    -1.424000000
H     5.026000000    -3.070000000    -1.915000000
H     5.497000000    -3.379000000    -0.510000000
O     2.659000000    -5.457000000    -6.429000000
H     2.824000000    -6.396000000    -6.507000000
H     2.331000000    -5.199000000    -7.291000000
O    -0.385000000    -2.151000000    -5.296000000
H    -0.541000000    -3.046000000    -4.992000000
H     0.513000000    -1.959000000    -5.025000000
O     3.219000000    -2.591000000    -6.652000000
H     2.489000000    -2.628000000    -7.270000000
H     2.805000000    -2.641000000    -5.790000000
O     5.325000000    -3.701000000    -7.801000000
H     4.608000000    -3.327000000    -7.289000000
H     6.051000000    -3.089000000    -7.678000000
O     6.097000000     2.618000000    -5.673000000
H     5.540000000     1.997000000    -5.203000000
H     5.649000000     2.759000000    -6.507000000
O     0.897000000    -4.537000000    -4.709000000
H     1.316000000    -3.691000000    -4.555000000
H     1.471000000    -4.978000000    -5.335000000
O     4.068000000    -5.220000000    -3.889000000
H     3.877000000    -4.454000000    -3.348000000
H     3.293000000    -5.323000000    -4.441000000
O     3.440000000     0.043000000    -4.817000000
H     2.781000000    -0.590000000    -4.530000000
H     4.276000000    -0.360000000    -4.584000000
O     1.462000000    -4.087000000    -8.676000000
H     0.712000000    -3.832000000    -8.138000000
H     1.196000000    -3.877000000    -9.571000000
O     0.199000000    -7.475000000    -4.611000000
H     0.190000000    -7.912000000    -5.463000000
H     0.252000000    -6.543000000    -4.822000000
O     3.802000000     1.091000000    -7.286000000
H     3.706000000     0.523000000    -6.522000000
H     2.913000000     1.391000000    -7.474000000
O     7.705000000    -4.388000000    -5.154000000
H     8.005000000    -3.876000000    -5.905000000
H     6.881000000    -4.778000000    -5.444000000
O     5.798000000    -1.757000000    -4.260000000
H     5.121000000    -2.433000000    -4.269000000
H     6.616000000    -2.239000000    -4.136000000
