201
-1243.65464
C     2.839000000    -3.969000000     2.086000000
H     2.002000000    -4.435000000     2.600000000
C     3.101000000    -2.621000000     2.311000000
C     4.176000000    -2.035000000     1.664000000
H     4.390000000    -0.993000000     1.885000000
C     2.110000000    -1.785000000     3.186000000
O     1.276000000    -2.473000000     4.039000000
H     1.477000000    -1.215000000     2.492000000
O     2.837000000    -0.810000000     3.960000000
C     2.249000000     0.417000000     4.061000000
C     2.803000000     1.388000000     3.258000000
H     3.640000000     1.148000000     2.607000000
C     2.199000000     2.609000000     3.147000000
O     2.791000000     3.505000000     2.348000000
C     0.976000000     2.919000000     3.826000000
C     0.397000000     4.335000000     3.654000000
H    -0.147000000     4.679000000     4.536000000
C    -0.468000000     4.353000000     2.446000000
C    -1.810000000     4.069000000     2.569000000
H    -2.272000000     3.920000000     3.542000000
H     1.257000000     4.997000000     3.540000000
C     0.346000000     1.881000000     4.501000000
H    -0.610000000     1.940000000     5.015000000
C     1.084000000     0.670000000     4.735000000
C     0.326000000    -0.380000000     5.558000000
H    -0.208000000     0.210000000     6.306000000
H     1.014000000    -1.008000000     6.128000000
C    -0.620000000    -1.220000000     4.731000000
C    -1.918000000    -0.837000000     4.516000000
H    -2.345000000     0.027000000     5.018000000
C    -0.113000000    -2.290000000     3.994000000
C    -0.904000000    -2.976000000     3.085000000
H    -0.518000000    -3.852000000     2.571000000
C    -2.246000000    -2.676000000     3.007000000
O    -3.035000000    -3.285000000     2.126000000
C    -3.012000000    -2.655000000     0.824000000
C    -2.743000000    -3.649000000    -0.316000000
C    -3.265000000    -3.402000000    -1.577000000
H    -3.934000000    -2.557000000    -1.719000000
C    -1.936000000    -4.744000000    -0.120000000
H    -1.653000000    -4.941000000     0.911000000
O    -4.316000000    -2.042000000     0.659000000
H    -2.153000000    -1.974000000     0.729000000
C    -2.743000000    -1.554000000     3.671000000
C    -4.202000000    -1.112000000     3.474000000
H    -4.584000000    -0.747000000     4.429000000
H    -4.700000000    -2.040000000     3.181000000
C    -4.309000000    -0.153000000     2.268000000
C    -4.100000000     1.197000000     2.423000000
H    -3.859000000     1.712000000     3.349000000
C    -4.480000000    -0.654000000     0.943000000
C    -4.593000000     0.197000000    -0.168000000
H    -4.698000000    -0.251000000    -1.153000000
C    -4.495000000     1.558000000     0.062000000
O    -4.231000000     2.306000000    -0.979000000
C    -2.841000000     2.723000000    -1.270000000
C    -2.537000000     2.209000000    -2.674000000
C    -3.511000000     1.684000000    -3.485000000
H    -4.536000000     1.449000000    -3.211000000
C    -1.191000000     2.286000000    -3.202000000
H    -0.382000000     2.624000000    -2.560000000
O    -2.645000000     4.105000000    -1.085000000
H    -2.216000000     2.204000000    -0.528000000
C    -4.198000000     2.054000000     1.321000000
C    -4.064000000     3.576000000     1.576000000
H    -4.389000000     3.769000000     2.600000000
H    -4.736000000     4.034000000     0.846000000
C    -2.622000000     4.063000000     1.403000000
C    -2.087000000     4.360000000     0.145000000
C    -0.750000000     4.685000000     0.097000000
H    -0.265000000     4.851000000    -0.862000000
C     0.033000000     4.695000000     1.240000000
O     1.345000000     4.960000000     1.114000000
C     2.226000000     3.816000000     1.089000000
H     1.631000000     2.943000000     0.783000000
C     3.230000000     3.943000000     0.004000000
C     4.515000000     3.280000000     0.063000000
H     4.818000000     2.775000000     0.977000000
C     2.861000000     4.512000000    -1.203000000
H     1.841000000     4.852000000    -1.361000000
C     3.713000000     4.530000000    -2.274000000
O     3.375000000     5.225000000    -3.383000000
C     4.972000000     3.886000000    -2.241000000
H     5.581000000     3.972000000    -3.137000000
C     5.313000000     3.197000000    -1.104000000
O     6.476000000     2.434000000    -1.063000000
C     6.729000000     1.372000000    -0.204000000
C     6.159000000     0.097000000    -0.354000000
H     5.537000000    -0.129000000    -1.216000000
C     7.424000000     1.648000000     1.014000000
H     7.934000000     2.600000000     1.135000000
C     7.494000000     0.671000000     1.998000000
H     8.008000000     0.900000000     2.928000000
C     6.989000000    -0.568000000     1.746000000
H     7.206000000    -1.369000000     2.447000000
C     6.400000000    -0.906000000     0.560000000
O     6.060000000    -2.146000000     0.232000000
C     4.911000000    -2.697000000     0.774000000
C     4.761000000    -4.077000000     0.569000000
H     5.430000000    -4.640000000    -0.077000000
C     3.694000000    -4.674000000     1.188000000
O     3.508000000    -6.001000000     0.882000000
C     2.240000000    -6.589000000     0.874000000
C     1.289000000    -6.366000000    -0.131000000
H     1.597000000    -5.795000000    -1.003000000
C     1.910000000    -7.546000000     1.860000000
H     2.668000000    -7.824000000     2.588000000
C     0.612000000    -8.045000000     1.949000000
H     0.442000000    -8.862000000     2.645000000
C    -0.352000000    -7.769000000     0.979000000
H    -1.346000000    -8.206000000     1.019000000
C     0.009000000    -6.926000000    -0.102000000
O    -0.888000000    -6.714000000    -1.122000000
C    -1.715000000    -5.578000000    -1.202000000
C    -2.350000000    -5.375000000    -2.509000000
H    -2.064000000    -6.019000000    -3.337000000
C    -3.120000000    -4.253000000    -2.668000000
O    -3.680000000    -4.009000000    -3.921000000
C    -4.344000000    -2.934000000    -4.373000000
C    -3.790000000    -1.669000000    -4.598000000
H    -2.763000000    -1.439000000    -4.327000000
C    -5.625000000    -3.245000000    -4.794000000
H    -5.945000000    -4.264000000    -4.591000000
C    -6.338000000    -2.301000000    -5.557000000
H    -7.337000000    -2.638000000    -5.823000000
C    -5.809000000    -1.056000000    -5.862000000
H    -6.385000000    -0.318000000    -6.414000000
C    -4.559000000    -0.756000000    -5.323000000
O    -4.213000000     0.548000000    -5.501000000
C    -3.189000000     1.183000000    -4.778000000
C    -1.948000000     1.338000000    -5.338000000
H    -1.611000000     1.063000000    -6.334000000
C    -0.980000000     1.901000000    -4.504000000
O     0.213000000     2.235000000    -5.137000000
C     0.712000000     3.555000000    -5.195000000
C     0.000000000     4.561000000    -5.749000000
H    -0.912000000     4.377000000    -6.311000000
C     0.496000000     5.854000000    -5.659000000
H    -0.056000000     6.686000000    -6.089000000
C     1.576000000     6.056000000    -4.762000000
H     1.934000000     7.071000000    -4.609000000
C     2.246000000     5.008000000    -4.162000000
C     1.835000000     3.736000000    -4.387000000
H     2.283000000     2.863000000    -3.918000000
O     6.255000000    -6.002000000    -2.478000000
H     5.560000000    -5.395000000    -2.732000000
H     6.683000000    -6.234000000    -3.302000000
O     4.652000000    -5.474000000    -7.632000000
H     3.888000000    -5.299000000    -7.083000000
H     5.080000000    -4.623000000    -7.727000000
O     4.881000000    -3.765000000    -2.589000000
H     4.174000000    -3.220000000    -2.934000000
H     5.401000000    -3.169000000    -2.049000000
O     2.260000000    -4.187000000    -5.850000000
H     1.587000000    -4.864000000    -5.911000000
H     2.133000000    -3.800000000    -4.984000000
O    -2.022000000    -2.128000000    -7.815000000
H    -1.775000000    -2.565000000    -7.001000000
H    -2.909000000    -2.439000000    -7.996000000
O     1.028000000    -7.605000000    -3.277000000
H     0.354000000    -7.639000000    -2.599000000
H     0.884000000    -6.767000000    -3.717000000
O     1.521000000    -0.195000000    -6.378000000
H     1.421000000    -0.793000000    -7.119000000
H     1.453000000    -0.758000000    -5.606000000
O     5.854000000    -3.139000000    -8.103000000
H     5.631000000    -2.602000000    -7.344000000
H     6.308000000    -2.539000000    -8.696000000
O     1.131000000     1.698000000    -8.881000000
H     1.635000000     1.341000000    -8.150000000
H     0.379000000     1.111000000    -8.962000000
O     3.368000000    -7.681000000    -5.104000000
H     2.922000000    -7.664000000    -4.257000000
H     2.660000000    -7.654000000    -5.747000000
O     7.234000000     2.250000000    -4.718000000
H     6.460000000     1.738000000    -4.485000000
H     7.797000000     2.201000000    -3.945000000
O    -1.034000000    -3.023000000    -5.435000000
H    -1.204000000    -3.597000000    -4.687000000
H    -0.105000000    -2.806000000    -5.364000000
O     4.339000000    -1.964000000    -6.231000000
H     4.009000000    -2.005000000    -5.333000000
H     3.555000000    -1.858000000    -6.770000000
O     3.543000000     2.062000000    -6.504000000
H     3.675000000     2.403000000    -5.620000000
H     3.094000000     1.227000000    -6.374000000
O     1.882000000    -2.404000000    -7.986000000
H     1.821000000    -3.206000000    -7.468000000
H     1.294000000    -2.552000000    -8.727000000
O    -0.148000000    -5.651000000    -5.051000000
H    -0.183000000    -6.588000000    -5.246000000
H    -0.541000000    -5.233000000    -5.817000000
O     4.429000000    -7.961000000    -1.313000000
H     3.669000000    -7.389000000    -1.425000000
H     5.154000000    -7.476000000    -1.708000000
O     7.274000000    -3.099000000    -5.273000000
H     7.347000000    -3.043000000    -6.225000000
H     6.338000000    -2.999000000    -5.098000000
O     5.105000000     0.389000000    -4.219000000
H     4.637000000    -0.035000000    -3.499000000
H     5.142000000    -0.277000000    -4.905000000
