201
-1270.41844
C     2.978000000    -3.311000000     2.304000000
H     1.991000000    -3.687000000     2.560000000
C     3.295000000    -2.008000000     2.643000000
C     4.442000000    -1.497000000     2.150000000
H     4.697000000    -0.455000000     2.326000000
C     2.202000000    -1.211000000     3.337000000
O     1.418000000    -2.068000000     4.249000000
H     1.622000000    -0.859000000     2.471000000
O     2.791000000    -0.053000000     3.917000000
C     2.070000000     1.130000000     4.023000000
C     2.628000000     2.118000000     3.264000000
H     3.598000000     1.997000000     2.789000000
C     1.973000000     3.313000000     3.128000000
O     2.482000000     4.165000000     2.117000000
C     0.672000000     3.494000000     3.667000000
C    -0.171000000     4.696000000     3.237000000
H    -0.896000000     4.919000000     4.021000000
C    -0.923000000     4.478000000     1.904000000
C    -2.249000000     4.042000000     2.002000000
H    -2.761000000     4.041000000     2.961000000
H     0.389000000     5.629000000     3.149000000
C     0.170000000     2.455000000     4.444000000
H    -0.844000000     2.581000000     4.813000000
C     0.855000000     1.305000000     4.607000000
C     0.182000000     0.179000000     5.360000000
H    -0.461000000     0.616000000     6.126000000
H     0.905000000    -0.384000000     5.953000000
C    -0.585000000    -0.789000000     4.532000000
C    -1.907000000    -0.512000000     4.274000000
H    -2.389000000     0.417000000     4.569000000
C     0.004000000    -1.942000000     4.081000000
C    -0.697000000    -2.789000000     3.295000000
H    -0.261000000    -3.591000000     2.704000000
C    -2.041000000    -2.531000000     3.014000000
O    -2.801000000    -3.355000000     2.186000000
C    -2.944000000    -2.884000000     0.782000000
C    -2.595000000    -3.945000000    -0.244000000
C    -3.023000000    -3.762000000    -1.552000000
H    -3.632000000    -2.887000000    -1.763000000
C    -1.824000000    -5.059000000     0.107000000
H    -1.581000000    -5.251000000     1.149000000
O    -4.339000000    -2.414000000     0.647000000
H    -2.266000000    -2.041000000     0.579000000
C    -2.727000000    -1.457000000     3.567000000
C    -4.199000000    -1.136000000     3.342000000
H    -4.543000000    -0.541000000     4.191000000
H    -4.909000000    -1.965000000     3.355000000
C    -4.410000000    -0.417000000     2.037000000
C    -4.378000000     0.961000000     2.079000000
H    -4.342000000     1.411000000     3.068000000
C    -4.526000000    -1.050000000     0.822000000
C    -4.604000000    -0.361000000    -0.344000000
H    -4.576000000    -0.879000000    -1.299000000
C    -4.563000000     1.072000000    -0.329000000
O    -4.501000000     1.749000000    -1.507000000
C    -3.200000000     2.188000000    -1.942000000
C    -3.030000000     1.960000000    -3.446000000
C    -3.747000000     0.942000000    -4.062000000
H    -4.510000000     0.412000000    -3.498000000
C    -2.001000000     2.653000000    -4.113000000
H    -1.486000000     3.502000000    -3.671000000
O    -3.025000000     3.564000000    -1.568000000
H    -2.343000000     1.642000000    -1.520000000
C    -4.420000000     1.733000000     0.900000000
C    -4.480000000     3.206000000     1.032000000
H    -4.815000000     3.412000000     2.051000000
H    -5.081000000     3.687000000     0.257000000
C    -3.006000000     3.712000000     0.883000000
C    -2.443000000     3.865000000    -0.381000000
C    -1.098000000     4.209000000    -0.422000000
H    -0.575000000     4.277000000    -1.373000000
C    -0.346000000     4.654000000     0.643000000
O     0.989000000     4.932000000     0.465000000
C     2.013000000     3.966000000     0.777000000
H     1.386000000     3.062000000     0.763000000
C     3.085000000     3.758000000    -0.254000000
C     4.371000000     3.349000000     0.120000000
H     4.677000000     3.197000000     1.152000000
C     2.675000000     3.790000000    -1.606000000
H     1.673000000     4.137000000    -1.845000000
C     3.598000000     3.431000000    -2.625000000
O     3.301000000     3.399000000    -3.942000000
C     4.801000000     2.926000000    -2.233000000
H     5.501000000     2.538000000    -2.967000000
C     5.252000000     2.957000000    -0.899000000
O     6.537000000     2.490000000    -0.659000000
C     6.829000000     1.661000000     0.402000000
C     6.853000000     0.272000000     0.317000000
H     6.637000000    -0.245000000    -0.615000000
C     7.350000000     2.203000000     1.610000000
H     7.572000000     3.266000000     1.561000000
C     7.552000000     1.475000000     2.767000000
H     7.902000000     1.896000000     3.706000000
C     7.210000000     0.096000000     2.724000000
H     7.232000000    -0.525000000     3.616000000
C     7.023000000    -0.488000000     1.464000000
O     6.772000000    -1.786000000     1.421000000
C     5.466000000    -2.280000000     1.603000000
C     5.180000000    -3.600000000     1.263000000
H     5.943000000    -4.198000000     0.772000000
C     3.934000000    -4.150000000     1.671000000
O     3.646000000    -5.368000000     1.232000000
C     2.476000000    -6.079000000     1.392000000
C     1.451000000    -5.964000000     0.480000000
H     1.520000000    -5.248000000    -0.335000000
C     2.383000000    -6.991000000     2.434000000
H     3.173000000    -7.060000000     3.178000000
C     1.360000000    -7.888000000     2.570000000
H     1.335000000    -8.667000000     3.327000000
C     0.424000000    -7.817000000     1.559000000
H    -0.317000000    -8.610000000     1.484000000
C     0.398000000    -6.837000000     0.540000000
O    -0.473000000    -6.950000000    -0.547000000
C    -1.418000000    -5.935000000    -0.874000000
C    -1.803000000    -5.702000000    -2.250000000
H    -1.353000000    -6.341000000    -3.005000000
C    -2.612000000    -4.666000000    -2.558000000
O    -2.896000000    -4.443000000    -3.881000000
C    -3.867000000    -3.501000000    -4.301000000
C    -3.515000000    -2.283000000    -4.896000000
H    -2.456000000    -2.067000000    -5.019000000
C    -5.143000000    -3.866000000    -4.106000000
H    -5.328000000    -4.879000000    -3.757000000
C    -6.222000000    -3.026000000    -4.499000000
H    -7.266000000    -3.262000000    -4.306000000
C    -5.841000000    -1.861000000    -5.180000000
H    -6.603000000    -1.162000000    -5.513000000
C    -4.545000000    -1.553000000    -5.515000000
O    -4.197000000    -0.323000000    -6.097000000
C    -3.563000000     0.665000000    -5.426000000
C    -2.614000000     1.455000000    -6.181000000
H    -2.328000000     1.179000000    -7.193000000
C    -1.829000000     2.405000000    -5.470000000
O    -0.877000000     3.097000000    -6.284000000
C     0.115000000     3.830000000    -5.736000000
C     0.041000000     5.200000000    -5.816000000
H    -0.865000000     5.608000000    -6.255000000
C     1.110000000     6.061000000    -5.399000000
H     1.059000000     7.147000000    -5.419000000
C     2.190000000     5.438000000    -4.700000000
H     3.035000000     6.003000000    -4.315000000
C     2.238000000     4.026000000    -4.534000000
C     1.238000000     3.246000000    -5.059000000
H     1.156000000     2.175000000    -4.894000000
O     4.650000000    -4.012000000    -4.583000000
H     4.455000000    -3.578000000    -3.752000000
H     5.432000000    -4.533000000    -4.402000000
O     0.984000000    -3.554000000    -3.079000000
H     1.092000000    -4.168000000    -3.806000000
H     0.834000000    -2.708000000    -3.501000000
O     7.887000000     0.384000000    -3.236000000
H     7.455000000     1.103000000    -3.698000000
H     7.234000000    -0.316000000    -3.218000000
O     5.180000000    -1.176000000    -2.731000000
H     4.477000000    -0.827000000    -3.280000000
H     4.762000000    -1.867000000    -2.217000000
O     4.704000000    -1.779000000    -6.287000000
H     4.234000000    -1.242000000    -5.649000000
H     4.532000000    -2.680000000    -6.015000000
O     2.270000000    -5.417000000    -5.087000000
H     2.113000000    -5.379000000    -6.030000000
H     3.120000000    -4.992000000    -4.968000000
O     3.072000000    -2.498000000    -8.802000000
H     3.688000000    -2.121000000    -9.431000000
H     3.454000000    -2.302000000    -7.946000000
O     4.432000000    -3.685000000    -1.645000000
H     4.972000000    -4.432000000    -1.383000000
H     3.764000000    -3.622000000    -0.962000000
O     2.206000000     0.467000000    -7.766000000
H     2.729000000    -0.205000000    -8.203000000
H     2.302000000     0.277000000    -6.833000000
O    -1.266000000    -0.542000000    -8.511000000
H    -1.901000000    -0.390000000    -9.211000000
H    -0.414000000    -0.495000000    -8.946000000
O    -0.165000000    -2.062000000    -6.584000000
H     0.572000000    -1.546000000    -6.258000000
H    -0.643000000    -1.462000000    -7.157000000
O     1.091000000    -4.103000000    -7.838000000
H     1.771000000    -3.673000000    -8.355000000
H     0.887000000    -3.478000000    -7.142000000
O     0.262000000     2.215000000    -8.790000000
H    -0.052000000     2.425000000    -7.910000000
H     1.064000000     1.713000000    -8.645000000
O    -1.765000000    -4.089000000    -7.544000000
H    -1.089000000    -3.434000000    -7.367000000
H    -2.587000000    -3.599000000    -7.514000000
O     1.749000000    -2.953000000    -0.649000000
H     1.494000000    -3.280000000    -1.512000000
H     1.592000000    -2.010000000    -0.695000000
O     7.496000000     2.799000000    -5.213000000
H     7.249000000     3.694000000    -4.981000000
H     6.675000000     2.308000000    -5.182000000
O     4.037000000     3.156000000    -6.965000000
H     3.455000000     2.519000000    -7.380000000
H     4.344000000     3.706000000    -7.687000000
O     5.169000000    -0.511000000    -8.725000000
H     5.204000000    -0.713000000    -7.790000000
H     5.800000000     0.199000000    -8.841000000
O     5.432000000     1.387000000    -5.319000000
H     5.079000000     1.810000000    -6.102000000
H     4.662000000     1.044000000    -4.865000000
