201
-1231.16926
C     1.709000000    -4.960000000     1.154000000
H     0.676000000    -5.264000000     1.303000000
C     2.252000000    -3.838000000     1.879000000
C     3.557000000    -3.441000000     1.633000000
H     4.012000000    -2.636000000     2.204000000
C     1.357000000    -3.065000000     2.917000000
O     0.256000000    -3.858000000     3.438000000
H     0.949000000    -2.240000000     2.315000000
O     2.159000000    -2.463000000     3.997000000
C     2.011000000    -1.120000000     4.180000000
C     2.822000000    -0.173000000     3.512000000
H     3.722000000    -0.411000000     2.951000000
C     2.508000000     1.144000000     3.671000000
O     3.362000000     2.042000000     3.093000000
C     1.394000000     1.520000000     4.377000000
C     1.020000000     2.953000000     4.434000000
H     0.411000000     3.097000000     5.329000000
C     0.300000000     3.456000000     3.194000000
C    -1.098000000     3.699000000     3.245000000
H    -1.661000000     3.515000000     4.157000000
H     1.881000000     3.619000000     4.532000000
C     0.555000000     0.564000000     5.015000000
H    -0.360000000     0.852000000     5.525000000
C     0.855000000    -0.743000000     4.909000000
C    -0.156000000    -1.749000000     5.416000000
H    -0.641000000    -1.259000000     6.263000000
H     0.331000000    -2.634000000     5.830000000
C    -1.123000000    -2.048000000     4.335000000
C    -2.240000000    -1.256000000     4.206000000
H    -2.419000000    -0.473000000     4.939000000
C    -0.968000000    -3.135000000     3.484000000
C    -1.882000000    -3.395000000     2.449000000
H    -1.742000000    -4.215000000     1.750000000
C    -2.936000000    -2.548000000     2.254000000
O    -3.775000000    -2.788000000     1.167000000
C    -3.683000000    -1.799000000     0.020000000
C    -3.583000000    -2.447000000    -1.256000000
C    -4.386000000    -2.002000000    -2.341000000
H    -5.196000000    -1.296000000    -2.176000000
C    -2.575000000    -3.404000000    -1.545000000
H    -2.007000000    -3.742000000    -0.681000000
O    -4.835000000    -0.833000000     0.118000000
H    -2.727000000    -1.284000000     0.198000000
C    -3.220000000    -1.531000000     3.196000000
C    -4.481000000    -0.605000000     3.091000000
H    -4.731000000    -0.141000000     4.047000000
H    -5.412000000    -1.144000000     2.907000000
C    -4.351000000     0.521000000     2.059000000
C    -3.977000000     1.721000000     2.595000000
H    -3.739000000     1.956000000     3.629000000
C    -4.676000000     0.395000000     0.670000000
C    -4.597000000     1.471000000    -0.207000000
H    -4.825000000     1.356000000    -1.264000000
C    -4.072000000     2.655000000     0.300000000
O    -3.693000000     3.611000000    -0.654000000
C    -2.337000000     3.564000000    -0.918000000
C    -2.108000000     3.537000000    -2.458000000
C    -2.936000000     2.878000000    -3.406000000
H    -3.841000000     2.367000000    -3.089000000
C    -1.009000000     4.230000000    -2.925000000
H    -0.439000000     4.727000000    -2.144000000
O    -1.731000000     4.704000000    -0.268000000
H    -1.718000000     2.726000000    -0.565000000
C    -3.827000000     2.818000000     1.726000000
C    -3.254000000     4.174000000     2.133000000
H    -3.654000000     4.320000000     3.139000000
H    -3.755000000     4.922000000     1.515000000
C    -1.768000000     4.163000000     2.127000000
C    -1.085000000     4.443000000     0.920000000
C     0.286000000     4.449000000     0.909000000
H     0.807000000     4.681000000    -0.017000000
C     1.012000000     3.940000000     2.000000000
O     2.360000000     3.733000000     1.835000000
C     2.914000000     2.409000000     1.795000000
H     2.078000000     1.729000000     1.574000000
C     4.028000000     2.270000000     0.777000000
C     5.168000000     1.439000000     0.970000000
H     5.436000000     0.943000000     1.899000000
C     3.727000000     2.797000000    -0.512000000
H     2.753000000     3.213000000    -0.757000000
C     4.698000000     2.590000000    -1.525000000
O     4.328000000     2.976000000    -2.803000000
C     5.880000000     2.005000000    -1.256000000
H     6.593000000     1.858000000    -2.063000000
C     6.135000000     1.497000000    -0.003000000
O     7.208000000     0.724000000     0.169000000
C     7.264000000    -0.561000000     0.770000000
C     6.556000000    -1.634000000     0.256000000
H     6.063000000    -1.586000000    -0.711000000
C     7.835000000    -0.703000000     2.028000000
H     8.365000000     0.175000000     2.386000000
C     7.776000000    -1.883000000     2.748000000
H     8.361000000    -1.927000000     3.663000000
C     6.963000000    -2.939000000     2.283000000
H     6.864000000    -3.863000000     2.847000000
C     6.398000000    -2.845000000     0.976000000
O     5.703000000    -3.978000000     0.566000000
C     4.355000000    -4.205000000     0.734000000
C     3.836000000    -5.278000000     0.094000000
H     4.500000000    -5.900000000    -0.500000000
C     2.548000000    -5.672000000     0.281000000
O     2.175000000    -6.712000000    -0.507000000
C     0.927000000    -6.862000000    -1.027000000
C     0.388000000    -5.862000000    -1.918000000
H     1.054000000    -5.115000000    -2.342000000
C     0.002000000    -7.772000000    -0.457000000
H     0.498000000    -8.314000000     0.344000000
C    -1.333000000    -7.788000000    -0.821000000
H    -2.169000000    -8.328000000    -0.384000000
C    -1.805000000    -6.871000000    -1.763000000
H    -2.846000000    -6.931000000    -2.071000000
C    -0.996000000    -5.834000000    -2.202000000
O    -1.501000000    -4.914000000    -3.125000000
C    -2.469000000    -3.947000000    -2.834000000
C    -3.268000000    -3.477000000    -3.857000000
H    -3.180000000    -3.955000000    -4.829000000
C    -4.207000000    -2.482000000    -3.625000000
O    -5.044000000    -1.992000000    -4.616000000
C    -5.259000000    -0.601000000    -4.800000000
C    -4.187000000     0.216000000    -5.111000000
H    -3.137000000    -0.042000000    -5.002000000
C    -6.586000000    -0.155000000    -4.990000000
H    -7.361000000    -0.904000000    -4.847000000
C    -6.872000000     1.021000000    -5.656000000
H    -7.870000000     1.148000000    -6.066000000
C    -5.787000000     1.847000000    -5.987000000
H    -5.956000000     2.793000000    -6.497000000
C    -4.505000000     1.505000000    -5.618000000
O    -3.438000000     2.407000000    -5.784000000
C    -2.674000000     2.980000000    -4.787000000
C    -1.549000000     3.717000000    -5.186000000
H    -1.250000000     3.804000000    -6.227000000
C    -0.674000000     4.263000000    -4.279000000
O     0.424000000     4.989000000    -4.767000000
C     1.606000000     5.025000000    -4.123000000
C     2.028000000     6.298000000    -3.664000000
H     1.341000000     7.121000000    -3.845000000
C     3.280000000     6.444000000    -3.016000000
H     3.640000000     7.444000000    -2.791000000
C     3.993000000     5.325000000    -2.770000000
H     4.988000000     5.444000000    -2.349000000
C     3.517000000     4.081000000    -3.083000000
C     2.335000000     3.873000000    -3.739000000
H     1.999000000     2.861000000    -3.952000000
O     4.865000000    -4.825000000    -3.340000000
H     5.008000000    -4.955000000    -4.278000000
H     4.195000000    -4.143000000    -3.293000000
O    -0.649000000    -3.850000000    -6.074000000
H     0.061000000    -3.406000000    -5.610000000
H    -0.749000000    -4.685000000    -5.616000000
O     6.990000000    -3.315000000    -4.595000000
H     6.736000000    -3.745000000    -3.779000000
H     6.180000000    -2.925000000    -4.923000000
O     7.855000000     0.244000000    -4.022000000
H     7.073000000    -0.138000000    -3.623000000
H     7.619000000     1.157000000    -4.185000000
O     5.160000000    -0.679000000    -3.148000000
H     4.495000000    -1.365000000    -3.096000000
H     4.661000000     0.138000000    -3.163000000
O     3.620000000    -0.609000000    -8.658000000
H     2.984000000    -1.311000000    -8.524000000
H     3.228000000     0.153000000    -8.231000000
O     0.695000000     1.090000000    -5.737000000
H     1.176000000     0.377000000    -6.157000000
H     0.710000000     0.874000000    -4.805000000
O     5.676000000    -7.334000000    -3.222000000
H     4.962000000    -7.726000000    -3.724000000
H     5.423000000    -6.416000000    -3.122000000
O     3.441000000    -8.193000000    -4.438000000
H     2.867000000    -7.754000000    -5.066000000
H     2.843000000    -8.637000000    -3.837000000
O     2.071000000    -6.020000000    -5.948000000
H     1.704000000    -5.673000000    -6.761000000
H     1.955000000    -5.313000000    -5.313000000
O     0.443000000    -5.235000000    -8.159000000
H     0.959000000    -4.728000000    -8.786000000
H    -0.193000000    -4.610000000    -7.810000000
O    -2.803000000    -2.656000000    -7.549000000
H    -3.689000000    -2.673000000    -7.187000000
H    -2.249000000    -2.989000000    -6.843000000
O     7.467000000    -4.600000000    -1.841000000
H     6.669000000    -5.005000000    -2.180000000
H     7.256000000    -4.378000000    -0.934000000
O     1.528000000    -1.548000000    -6.679000000
H     0.822000000    -2.054000000    -7.080000000
H     1.678000000    -1.974000000    -5.835000000
O    -0.670000000     1.468000000    -8.051000000
H    -0.210000000     1.046000000    -8.776000000
H    -0.242000000     1.129000000    -7.265000000
O     3.663000000    -4.414000000    -8.224000000
H     4.183000000    -3.984000000    -8.902000000
H     4.280000000    -4.996000000    -7.781000000
O     4.778000000    -2.715000000    -6.254000000
H     4.313000000    -2.885000000    -7.073000000
H     4.132000000    -2.896000000    -5.571000000
O     5.562000000    -5.845000000    -5.835000000
H     5.940000000    -5.609000000    -6.682000000
H     5.943000000    -6.700000000    -5.633000000
O     4.302000000     0.939000000    -5.287000000
H     4.329000000     1.188000000    -6.211000000
H     4.465000000    -0.004000000    -5.288000000
