201
-1236.39327
C     1.587000000    -5.034000000     1.634000000
H     0.584000000    -5.351000000     1.909000000
C     2.341000000    -3.999000000     2.223000000
C     3.675000000    -3.766000000     1.891000000
H     4.323000000    -3.046000000     2.384000000
C     1.691000000    -2.989000000     3.059000000
O     0.524000000    -3.469000000     3.748000000
H     1.349000000    -2.236000000     2.334000000
O     2.673000000    -2.335000000     3.876000000
C     2.594000000    -0.978000000     4.043000000
C     3.402000000    -0.166000000     3.288000000
H     4.071000000    -0.661000000     2.590000000
C     3.159000000     1.230000000     3.227000000
O     3.868000000     1.922000000     2.266000000
C     2.220000000     1.858000000     4.065000000
C     1.908000000     3.346000000     3.987000000
H     1.452000000     3.639000000     4.935000000
C     0.986000000     3.758000000     2.836000000
C    -0.334000000     3.872000000     3.035000000
H    -0.745000000     3.769000000     4.036000000
H     2.806000000     3.967000000     4.018000000
C     1.410000000     1.025000000     4.826000000
H     0.614000000     1.356000000     5.489000000
C     1.559000000    -0.347000000     4.803000000
C     0.422000000    -1.170000000     5.445000000
H    -0.035000000    -0.642000000     6.285000000
H     0.842000000    -2.111000000     5.805000000
C    -0.699000000    -1.557000000     4.450000000
C    -1.949000000    -0.893000000     4.427000000
H    -2.089000000     0.101000000     4.845000000
C    -0.574000000    -2.675000000     3.629000000
C    -1.599000000    -3.023000000     2.715000000
H    -1.521000000    -3.891000000     2.064000000
C    -2.729000000    -2.230000000     2.639000000
O    -3.700000000    -2.550000000     1.708000000
C    -3.813000000    -1.646000000     0.590000000
C    -3.680000000    -2.362000000    -0.793000000
C    -4.355000000    -1.950000000    -1.863000000
H    -4.822000000    -0.968000000    -1.869000000
C    -2.876000000    -3.492000000    -0.889000000
H    -2.370000000    -3.881000000    -0.009000000
O    -4.913000000    -0.675000000     0.757000000
H    -2.945000000    -0.976000000     0.686000000
C    -2.996000000    -1.195000000     3.528000000
C    -4.207000000    -0.294000000     3.601000000
H    -4.402000000     0.091000000     4.604000000
H    -5.082000000    -0.910000000     3.388000000
C    -4.185000000     0.818000000     2.600000000
C    -3.539000000     2.017000000     2.863000000
H    -3.093000000     2.040000000     3.855000000
C    -4.620000000     0.618000000     1.262000000
C    -4.531000000     1.634000000     0.341000000
H    -4.838000000     1.384000000    -0.671000000
C    -3.934000000     2.857000000     0.666000000
O    -3.621000000     3.773000000    -0.376000000
C    -2.250000000     3.704000000    -0.847000000
C    -2.140000000     3.565000000    -2.383000000
C    -3.143000000     2.892000000    -3.111000000
H    -4.013000000     2.580000000    -2.540000000
C    -1.149000000     4.279000000    -3.065000000
H    -0.348000000     4.668000000    -2.442000000
O    -1.521000000     4.772000000    -0.319000000
H    -1.825000000     2.754000000    -0.489000000
C    -3.446000000     3.058000000     1.936000000
C    -2.723000000     4.388000000     2.311000000
H    -2.778000000     4.595000000     3.382000000
H    -3.076000000     5.266000000     1.766000000
C    -1.223000000     4.179000000     1.997000000
C    -0.715000000     4.485000000     0.751000000
C     0.628000000     4.361000000     0.463000000
H     1.042000000     4.558000000    -0.522000000
C     1.466000000     3.957000000     1.504000000
O     2.795000000     3.770000000     1.162000000
C     3.143000000     2.392000000     1.069000000
H     2.260000000     1.750000000     0.935000000
C     3.907000000     2.066000000    -0.153000000
C     4.798000000     1.020000000    -0.201000000
H     4.960000000     0.375000000     0.659000000
C     3.707000000     2.831000000    -1.320000000
H     3.011000000     3.667000000    -1.317000000
C     4.383000000     2.558000000    -2.523000000
O     4.219000000     3.336000000    -3.681000000
C     5.328000000     1.499000000    -2.541000000
H     5.978000000     1.315000000    -3.392000000
C     5.492000000     0.716000000    -1.397000000
O     6.394000000    -0.352000000    -1.532000000
C     6.718000000    -1.316000000    -0.595000000
C     5.994000000    -2.521000000    -0.565000000
H     5.092000000    -2.640000000    -1.160000000
C     7.841000000    -1.147000000     0.156000000
H     8.301000000    -0.171000000     0.285000000
C     8.343000000    -2.130000000     1.016000000
H     9.133000000    -1.897000000     1.725000000
C     7.526000000    -3.259000000     1.185000000
H     7.667000000    -4.010000000     1.958000000
C     6.381000000    -3.474000000     0.443000000
O     5.641000000    -4.588000000     0.810000000
C     4.277000000    -4.592000000     0.965000000
C     3.571000000    -5.615000000     0.410000000
H     4.069000000    -6.270000000    -0.299000000
C     2.237000000    -5.811000000     0.709000000
O     1.643000000    -6.906000000     0.233000000
C     0.298000000    -6.967000000    -0.099000000
C    -0.171000000    -6.121000000    -1.090000000
H     0.387000000    -5.492000000    -1.780000000
C    -0.547000000    -7.638000000     0.739000000
H    -0.140000000    -8.262000000     1.531000000
C    -1.957000000    -7.545000000     0.535000000
H    -2.599000000    -7.991000000     1.290000000
C    -2.454000000    -6.949000000    -0.567000000
H    -3.483000000    -7.027000000    -0.907000000
C    -1.520000000    -6.173000000    -1.379000000
O    -1.976000000    -5.314000000    -2.292000000
C    -2.727000000    -4.173000000    -2.090000000
C    -3.484000000    -3.740000000    -3.170000000
H    -3.481000000    -4.392000000    -4.040000000
C    -4.266000000    -2.622000000    -3.088000000
O    -5.001000000    -2.240000000    -4.224000000
C    -5.421000000    -0.909000000    -4.426000000
C    -4.545000000     0.137000000    -4.609000000
H    -3.470000000    -0.023000000    -4.625000000
C    -6.808000000    -0.685000000    -4.349000000
H    -7.595000000    -1.433000000    -4.401000000
C    -7.296000000     0.567000000    -4.589000000
H    -8.368000000     0.720000000    -4.685000000
C    -6.370000000     1.552000000    -4.980000000
H    -6.775000000     2.521000000    -5.260000000
C    -5.020000000     1.353000000    -4.985000000
O    -4.262000000     2.510000000    -5.229000000
C    -3.142000000     2.884000000    -4.551000000
C    -2.177000000     3.669000000    -5.141000000
H    -2.219000000     3.826000000    -6.215000000
C    -1.140000000     4.294000000    -4.453000000
O    -0.124000000     4.940000000    -5.082000000
C     1.145000000     5.086000000    -4.466000000
C     1.468000000     6.441000000    -4.218000000
H     0.755000000     7.199000000    -4.533000000
C     2.734000000     6.743000000    -3.709000000
H     3.021000000     7.781000000    -3.563000000
C     3.730000000     5.692000000    -3.565000000
H     4.743000000     5.947000000    -3.265000000
C     3.367000000     4.373000000    -3.798000000
C     2.119000000     4.119000000    -4.342000000
H     1.885000000     3.086000000    -4.584000000
O     5.016000000    -5.011000000    -3.159000000
H     4.136000000    -5.120000000    -3.521000000
H     5.301000000    -4.154000000    -3.475000000
O    -2.053000000    -8.471000000    -3.643000000
H    -1.404000000    -8.925000000    -4.180000000
H    -1.846000000    -7.543000000    -3.751000000
O    -1.417000000    -0.893000000    -6.253000000
H    -0.931000000    -1.399000000    -5.602000000
H    -1.974000000    -1.537000000    -6.690000000
O     3.935000000    -7.570000000    -2.487000000
H     4.804000000    -7.172000000    -2.440000000
H     3.381000000    -6.893000000    -2.875000000
O     2.841000000    -1.391000000    -5.591000000
H     2.681000000    -1.949000000    -6.352000000
H     2.508000000    -1.896000000    -4.849000000
O     0.017000000    -4.389000000    -6.302000000
H     0.059000000    -3.743000000    -5.597000000
H    -0.843000000    -4.253000000    -6.700000000
O     0.698000000     2.645000000    -7.255000000
H     0.862000000     1.958000000    -6.609000000
H    -0.242000000     2.593000000    -7.427000000
O     5.504000000    -2.111000000    -3.994000000
H     5.119000000    -2.163000000    -4.869000000
H     4.938000000    -1.502000000    -3.520000000
O     2.443000000    -5.522000000    -3.775000000
H     2.289000000    -5.679000000    -4.707000000
H     2.085000000    -4.648000000    -3.618000000
O    -2.392000000    -3.151000000    -7.338000000
H    -3.347000000    -3.119000000    -7.271000000
H    -2.211000000    -3.969000000    -7.801000000
O    -1.318000000    -0.696000000    -9.229000000
H    -1.858000000     0.069000000    -9.029000000
H    -1.313000000    -1.203000000    -8.417000000
O    -1.911000000     1.935000000    -7.681000000
H    -2.710000000     1.701000000    -8.154000000
H    -1.980000000     1.470000000    -6.848000000
O     4.538000000    -6.238000000    -6.984000000
H     4.786000000    -6.734000000    -7.765000000
H     3.685000000    -6.595000000    -6.735000000
O     1.974000000    -7.256000000    -6.232000000
H     1.103000000    -6.862000000    -6.183000000
H     2.013000000    -7.846000000    -5.480000000
O     5.986000000    -1.232000000    -7.753000000
H     5.602000000    -2.107000000    -7.698000000
H     5.299000000    -0.647000000    -7.434000000
O     2.162000000    -2.638000000    -7.946000000
H     2.081000000    -2.393000000    -8.868000000
H     1.442000000    -3.250000000    -7.797000000
O     4.522000000     1.677000000    -7.263000000
H     3.981000000     1.270000000    -7.939000000
H     3.894000000     2.041000000    -6.639000000
O     4.626000000    -3.546000000    -7.035000000
H     3.811000000    -3.207000000    -7.405000000
H     4.472000000    -4.486000000    -6.937000000
O     0.871000000     0.488000000    -5.598000000
H     0.171000000    -0.141000000    -5.425000000
H     1.662000000    -0.047000000    -5.667000000
