201
-1263.02390
C    -0.250000000    -4.669000000    -0.457000000
H    -1.164000000    -4.832000000     0.108000000
C     0.894000000    -4.026000000     0.119000000
C     2.003000000    -3.801000000    -0.773000000
H     2.934000000    -3.318000000    -0.487000000
C     1.059000000    -3.423000000     1.507000000
O     0.323000000    -4.213000000     2.457000000
H     0.598000000    -2.435000000     1.361000000
O     2.420000000    -3.365000000     1.988000000
C     2.868000000    -2.190000000     2.542000000
C     3.735000000    -1.495000000     1.727000000
H     4.189000000    -1.846000000     0.804000000
C     4.120000000    -0.199000000     2.095000000
O     4.862000000     0.531000000     1.150000000
C     3.675000000     0.312000000     3.344000000
C     4.025000000     1.770000000     3.521000000
H     4.114000000     2.055000000     4.572000000
C     2.910000000     2.641000000     2.991000000
C     1.737000000     2.957000000     3.756000000
H     1.564000000     2.521000000     4.736000000
H     5.012000000     1.978000000     3.103000000
C     2.873000000    -0.442000000     4.214000000
H     2.606000000    -0.004000000     5.172000000
C     2.461000000    -1.715000000     3.808000000
C     1.528000000    -2.544000000     4.772000000
H     1.670000000    -2.061000000     5.742000000
H     1.896000000    -3.572000000     4.805000000
C     0.059000000    -2.529000000     4.351000000
C    -0.760000000    -1.594000000     4.940000000
H    -0.357000000    -1.010000000     5.763000000
C    -0.453000000    -3.368000000     3.311000000
C    -1.793000000    -3.282000000     2.956000000
H    -2.180000000    -3.895000000     2.146000000
C    -2.575000000    -2.314000000     3.568000000
O    -3.884000000    -2.228000000     3.027000000
C    -4.141000000    -1.182000000     2.044000000
C    -5.037000000    -1.624000000     0.870000000
C    -5.671000000    -0.644000000     0.075000000
H    -5.428000000     0.394000000     0.291000000
C    -5.071000000    -2.966000000     0.396000000
H    -4.639000000    -3.823000000     0.907000000
O    -4.581000000     0.050000000     2.656000000
H    -3.148000000    -0.993000000     1.610000000
C    -2.063000000    -1.388000000     4.501000000
C    -2.891000000    -0.298000000     5.057000000
H    -2.603000000    -0.046000000     6.080000000
H    -3.946000000    -0.539000000     5.201000000
C    -2.877000000     0.931000000     4.144000000
C    -1.954000000     1.943000000     4.440000000
H    -1.315000000     1.898000000     5.317000000
C    -3.646000000     1.007000000     2.962000000
C    -3.512000000     2.141000000     2.164000000
H    -4.100000000     2.344000000     1.273000000
C    -2.428000000     3.023000000     2.350000000
O    -2.327000000     3.872000000     1.205000000
C    -1.064000000     3.812000000     0.499000000
C    -1.157000000     3.763000000    -1.033000000
C    -2.226000000     3.138000000    -1.552000000
H    -2.927000000     2.605000000    -0.916000000
C    -0.161000000     4.344000000    -1.836000000
H     0.630000000     4.961000000    -1.417000000
O    -0.095000000     4.686000000     1.033000000
H    -0.623000000     2.816000000     0.651000000
C    -1.643000000     2.939000000     3.520000000
C    -0.580000000     3.968000000     3.745000000
H    -0.447000000     4.096000000     4.821000000
H    -1.041000000     4.892000000     3.390000000
C     0.774000000     3.697000000     3.109000000
C     0.935000000     4.154000000     1.801000000
C     2.090000000     3.791000000     1.068000000
H     2.192000000     4.101000000     0.031000000
C     3.089000000     3.097000000     1.688000000
O     4.211000000     2.808000000     0.917000000
C     4.265000000     1.532000000     0.303000000
H     3.214000000     1.231000000     0.179000000
C     4.921000000     1.540000000    -1.112000000
C     5.453000000     0.377000000    -1.641000000
H     5.574000000    -0.472000000    -0.973000000
C     4.739000000     2.602000000    -1.943000000
H     4.267000000     3.517000000    -1.594000000
C     5.366000000     2.599000000    -3.188000000
O     5.335000000     3.767000000    -3.913000000
C     5.999000000     1.484000000    -3.695000000
H     6.408000000     1.458000000    -4.702000000
C     6.012000000     0.406000000    -2.892000000
O     6.469000000    -0.731000000    -3.511000000
C     5.934000000    -1.959000000    -3.239000000
C     4.580000000    -2.215000000    -3.447000000
H     3.877000000    -1.415000000    -3.667000000
C     6.810000000    -2.962000000    -2.811000000
H     7.871000000    -2.749000000    -2.709000000
C     6.348000000    -4.227000000    -2.529000000
H     7.020000000    -4.989000000    -2.141000000
C     5.034000000    -4.495000000    -2.662000000
H     4.620000000    -5.450000000    -2.349000000
C     4.098000000    -3.487000000    -2.982000000
O     2.771000000    -3.756000000    -3.115000000
C     1.893000000    -4.110000000    -2.141000000
C     0.797000000    -4.791000000    -2.610000000
H     0.770000000    -4.978000000    -3.681000000
C    -0.309000000    -5.004000000    -1.776000000
O    -1.463000000    -5.470000000    -2.367000000
C    -2.612000000    -5.823000000    -1.718000000
C    -3.702000000    -4.977000000    -1.799000000
H    -3.718000000    -4.052000000    -2.371000000
C    -2.704000000    -7.041000000    -0.999000000
H    -1.861000000    -7.727000000    -0.990000000
C    -3.835000000    -7.344000000    -0.211000000
H    -3.968000000    -8.282000000     0.323000000
C    -4.932000000    -6.431000000    -0.368000000
H    -5.925000000    -6.730000000    -0.043000000
C    -4.834000000    -5.276000000    -1.120000000
O    -5.935000000    -4.450000000    -1.327000000
C    -5.912000000    -3.254000000    -0.712000000
C    -6.630000000    -2.285000000    -1.373000000
H    -7.186000000    -2.591000000    -2.256000000
C    -6.532000000    -0.951000000    -0.999000000
O    -7.238000000     0.056000000    -1.674000000
C    -6.582000000     1.122000000    -2.170000000
C    -5.294000000     1.041000000    -2.650000000
H    -4.845000000     0.071000000    -2.845000000
C    -7.091000000     2.442000000    -1.977000000
H    -8.084000000     2.579000000    -1.557000000
C    -6.398000000     3.581000000    -2.313000000
H    -6.874000000     4.549000000    -2.182000000
C    -5.154000000     3.475000000    -3.001000000
H    -4.623000000     4.401000000    -3.206000000
C    -4.541000000     2.176000000    -3.035000000
O    -3.223000000     2.124000000    -3.499000000
C    -2.293000000     2.958000000    -2.918000000
C    -1.323000000     3.480000000    -3.733000000
H    -1.374000000     3.332000000    -4.809000000
C    -0.280000000     4.201000000    -3.195000000
O     0.557000000     4.896000000    -4.122000000
C     1.935000000     5.170000000    -3.871000000
C     2.219000000     6.420000000    -3.286000000
H     1.458000000     7.191000000    -3.205000000
C     3.471000000     6.758000000    -2.892000000
H     3.797000000     7.726000000    -2.520000000
C     4.520000000     5.875000000    -3.217000000
H     5.536000000     6.057000000    -2.877000000
C     4.261000000     4.643000000    -3.755000000
C     2.953000000     4.231000000    -4.064000000
H     2.781000000     3.191000000    -4.330000000
O    -0.535000000    -1.302000000    -9.986000000
H    -0.484000000    -1.148000000    -9.043000000
H    -1.392000000    -0.958000000   -10.238000000
O    -0.812000000     2.063000000    -8.056000000
H    -0.846000000     2.540000000    -8.885000000
H     0.012000000     2.340000000    -7.654000000
O     1.619000000     2.768000000    -6.754000000
H     2.315000000     3.412000000    -6.883000000
H     1.897000000     2.266000000    -5.988000000
O    -4.319000000    -0.928000000    -5.094000000
H    -3.521000000    -1.152000000    -4.615000000
H    -4.505000000    -1.703000000    -5.625000000
O    -0.569000000    -3.715000000    -7.348000000
H     0.007000000    -2.956000000    -7.254000000
H    -1.287000000    -3.548000000    -6.737000000
O     2.632000000     0.626000000    -4.900000000
H     3.175000000     0.255000000    -5.596000000
H     1.908000000     0.006000000    -4.805000000
O    -3.572000000    -6.404000000    -5.374000000
H    -3.099000000    -5.578000000    -5.283000000
H    -3.344000000    -6.716000000    -6.250000000
O     2.030000000    -2.763000000    -6.193000000
H     1.544000000    -2.417000000    -5.444000000
H     1.948000000    -2.086000000    -6.865000000
O    -5.139000000    -0.437000000    -8.186000000
H    -5.725000000     0.118000000    -8.700000000
H    -5.148000000    -0.049000000    -7.311000000
O    -3.121000000     1.873000000    -6.447000000
H    -2.430000000     1.860000000    -7.110000000
H    -2.803000000     1.287000000    -5.759000000
O     3.749000000    -4.627000000    -6.898000000
H     3.117000000    -5.334000000    -6.766000000
H     3.257000000    -3.828000000    -6.710000000
O    -5.738000000     1.332000000    -5.764000000
H    -5.596000000     0.418000000    -5.518000000
H    -4.858000000     1.707000000    -5.807000000
O     0.393000000    -6.362000000    -7.798000000
H     1.145000000    -6.470000000    -7.216000000
H     0.208000000    -5.423000000    -7.778000000
O    -0.930000000    -0.792000000    -7.366000000
H    -0.958000000    -1.068000000    -6.450000000
H    -0.956000000     0.164000000    -7.329000000
O     2.366000000    -1.128000000    -8.981000000
H     2.786000000    -1.685000000    -9.637000000
H     1.734000000    -0.608000000    -9.477000000
O    -2.004000000    -3.904000000    -4.719000000
H    -1.555000000    -4.366000000    -4.011000000
H    -2.026000000    -2.991000000    -4.433000000
O    -1.486000000    -4.209000000   -10.314000000
H    -2.264000000    -4.640000000    -9.961000000
H    -1.097000000    -3.762000000    -9.562000000
O     4.374000000     0.371000000    -8.039000000
H     3.612000000    -0.044000000    -8.445000000
H     4.987000000    -0.348000000    -7.890000000
O    -4.005000000    -3.024000000    -6.901000000
H    -3.133000000    -2.639000000    -6.988000000
H    -3.885000000    -3.753000000    -6.292000000
