201
-1228.80032
C     0.107000000    -4.895000000    -1.251000000
H    -0.901000000    -4.780000000    -0.860000000
C     1.230000000    -4.590000000    -0.477000000
C     2.464000000    -4.610000000    -1.071000000
H     3.242000000    -4.236000000    -0.411000000
C     1.036000000    -4.001000000     0.866000000
O    -0.059000000    -4.646000000     1.481000000
H     0.848000000    -2.927000000     0.722000000
O     2.162000000    -4.247000000     1.667000000
C     2.610000000    -3.182000000     2.426000000
C     3.608000000    -2.388000000     1.929000000
H     4.070000000    -2.681000000     0.990000000
C     3.864000000    -1.165000000     2.464000000
O     4.665000000    -0.377000000     1.656000000
C     3.288000000    -0.707000000     3.654000000
C     3.611000000     0.647000000     4.258000000
H     3.602000000     0.583000000     5.348000000
C     2.720000000     1.747000000     3.666000000
C     1.466000000     2.030000000     4.240000000
H     1.256000000     1.614000000     5.222000000
H     4.657000000     0.926000000     4.118000000
C     2.363000000    -1.597000000     4.224000000
H     1.843000000    -1.290000000     5.127000000
C     1.952000000    -2.832000000     3.596000000
C     0.837000000    -3.700000000     4.152000000
H     0.876000000    -3.650000000     5.243000000
H     1.124000000    -4.748000000     4.052000000
C    -0.481000000    -3.331000000     3.516000000
C    -1.318000000    -2.334000000     4.135000000
H    -0.979000000    -1.993000000     5.110000000
C    -0.894000000    -3.841000000     2.265000000
C    -2.103000000    -3.497000000     1.746000000
H    -2.476000000    -4.021000000     0.870000000
C    -2.919000000    -2.552000000     2.347000000
O    -4.045000000    -2.092000000     1.799000000
C    -3.982000000    -0.886000000     1.013000000
C    -4.492000000    -1.019000000    -0.386000000
C    -4.765000000     0.117000000    -1.140000000
H    -4.581000000     1.140000000    -0.822000000
C    -4.654000000    -2.274000000    -0.891000000
H    -4.261000000    -3.094000000    -0.296000000
O    -4.511000000     0.197000000     1.747000000
H    -2.914000000    -0.655000000     0.886000000
C    -2.538000000    -1.911000000     3.534000000
C    -3.348000000    -0.856000000     4.246000000
H    -3.180000000    -0.751000000     5.319000000
H    -4.438000000    -0.915000000     4.200000000
C    -3.046000000     0.514000000     3.714000000
C    -2.118000000     1.363000000     4.399000000
H    -1.574000000     1.113000000     5.306000000
C    -3.696000000     0.936000000     2.557000000
C    -3.494000000     2.277000000     2.152000000
H    -4.044000000     2.647000000     1.290000000
C    -2.610000000     3.148000000     2.838000000
O    -2.171000000     4.286000000     2.152000000
C    -1.014000000     4.178000000     1.262000000
C    -1.211000000     4.880000000    -0.115000000
C    -2.464000000     4.933000000    -0.726000000
H    -3.332000000     4.605000000    -0.159000000
C    -0.125000000     5.553000000    -0.718000000
H     0.802000000     5.593000000    -0.152000000
O     0.250000000     4.636000000     1.990000000
H    -0.816000000     3.104000000     1.128000000
C    -1.933000000     2.621000000     3.876000000
C    -0.669000000     3.318000000     4.416000000
H    -0.527000000     3.096000000     5.475000000
H    -0.783000000     4.404000000     4.433000000
C     0.604000000     3.040000000     3.713000000
C     1.036000000     3.708000000     2.586000000
C     2.239000000     3.431000000     2.005000000
H     2.445000000     3.907000000     1.050000000
C     3.043000000     2.384000000     2.453000000
O     4.097000000     1.951000000     1.699000000
C     3.959000000     0.672000000     0.993000000
H     2.889000000     0.438000000     1.098000000
C     4.234000000     0.948000000    -0.433000000
C     4.930000000    -0.001000000    -1.112000000
H     5.335000000    -0.872000000    -0.604000000
C     3.875000000     2.098000000    -1.137000000
H     3.380000000     2.922000000    -0.629000000
C     4.116000000     2.231000000    -2.465000000
O     3.538000000     3.235000000    -3.201000000
C     4.853000000     1.271000000    -3.190000000
H     4.910000000     1.241000000    -4.275000000
C     5.301000000     0.166000000    -2.480000000
O     6.014000000    -0.811000000    -3.079000000
C     6.039000000    -2.188000000    -2.692000000
C     5.049000000    -3.062000000    -3.024000000
H     4.230000000    -2.707000000    -3.645000000
C     7.124000000    -2.671000000    -2.052000000
H     7.987000000    -2.064000000    -1.792000000
C     7.210000000    -3.948000000    -1.550000000
H     8.079000000    -4.313000000    -1.009000000
C     6.101000000    -4.819000000    -1.776000000
H     6.042000000    -5.790000000    -1.292000000
C     5.078000000    -4.363000000    -2.616000000
O     4.053000000    -5.274000000    -2.985000000
C     2.746000000    -5.146000000    -2.363000000
C     1.588000000    -5.472000000    -3.040000000
H     1.698000000    -5.856000000    -4.051000000
C     0.323000000    -5.315000000    -2.532000000
O    -0.798000000    -5.597000000    -3.329000000
C    -2.113000000    -5.714000000    -2.935000000
C    -2.884000000    -4.572000000    -2.909000000
H    -2.436000000    -3.611000000    -3.153000000
C    -2.667000000    -6.982000000    -2.851000000
H    -2.097000000    -7.901000000    -2.964000000
C    -4.031000000    -7.166000000    -2.586000000
H    -4.430000000    -8.176000000    -2.546000000
C    -4.865000000    -6.009000000    -2.579000000
H    -5.948000000    -6.061000000    -2.506000000
C    -4.287000000    -4.745000000    -2.668000000
O    -5.127000000    -3.712000000    -2.819000000
C    -4.996000000    -2.437000000    -2.270000000
C    -5.398000000    -1.304000000    -2.980000000
H    -5.803000000    -1.364000000    -3.987000000
C    -5.242000000    -0.028000000    -2.438000000
O    -5.613000000     1.022000000    -3.217000000
C    -5.691000000     2.307000000    -2.673000000
C    -4.665000000     3.196000000    -2.881000000
H    -3.802000000     2.831000000    -3.432000000
C    -6.931000000     2.679000000    -2.019000000
H    -7.703000000     1.926000000    -1.881000000
C    -7.106000000     3.985000000    -1.620000000
H    -8.019000000     4.253000000    -1.096000000
C    -6.064000000     4.862000000    -1.902000000
H    -6.225000000     5.879000000    -1.555000000
C    -4.800000000     4.504000000    -2.383000000
O    -3.845000000     5.448000000    -2.615000000
C    -2.588000000     5.423000000    -2.024000000
C    -1.551000000     6.024000000    -2.597000000
H    -1.745000000     6.536000000    -3.536000000
C    -0.325000000     6.179000000    -1.955000000
O     0.663000000     6.859000000    -2.559000000
C     1.959000000     6.380000000    -2.495000000
C     3.012000000     7.175000000    -1.992000000
H     2.758000000     8.186000000    -1.682000000
C     4.255000000     6.574000000    -1.727000000
H     5.080000000     7.085000000    -1.237000000
C     4.482000000     5.248000000    -2.121000000
H     5.423000000     4.709000000    -2.048000000
C     3.461000000     4.535000000    -2.771000000
C     2.185000000     5.092000000    -2.976000000
H     1.327000000     4.538000000    -3.348000000
O    -0.874000000     0.625000000   -10.023000000
H    -0.426000000     0.626000000    -9.177000000
H    -0.859000000    -0.291000000   -10.300000000
O    -0.920000000     3.669000000    -5.793000000
H    -0.224000000     3.968000000    -6.379000000
H    -0.693000000     2.761000000    -5.594000000
O    -2.393000000     0.163000000    -5.097000000
H    -1.602000000     0.702000000    -5.110000000
H    -2.287000000    -0.399000000    -4.329000000
O     1.226000000     5.432000000    -6.341000000
H     1.979000000     5.725000000    -6.855000000
H     0.982000000     6.196000000    -5.818000000
O     2.214000000     2.600000000    -5.956000000
H     1.466000000     2.208000000    -5.505000000
H     2.677000000     3.086000000    -5.274000000
O    -3.345000000     4.169000000    -6.537000000
H    -3.601000000     3.248000000    -6.576000000
H    -2.508000000     4.166000000    -6.072000000
O     0.343000000    -2.669000000    -6.096000000
H     1.058000000    -3.202000000    -5.749000000
H     0.484000000    -1.802000000    -5.718000000
O    -0.405000000     3.296000000   -10.755000000
H    -0.840000000     2.445000000   -10.699000000
H     0.202000000     3.304000000   -10.015000000
O     4.442000000     1.282000000    -7.005000000
H     3.757000000     1.754000000    -6.532000000
H     4.346000000     0.373000000    -6.721000000
O    -4.377000000     1.513000000    -6.760000000
H    -4.400000000     0.840000000    -7.440000000
H    -3.794000000     1.156000000    -6.090000000
O     3.172000000    -0.963000000    -6.338000000
H     3.274000000    -1.809000000    -5.901000000
H     2.506000000    -0.507000000    -5.823000000
O     0.804000000     0.039000000    -7.997000000
H     0.615000000     0.122000000    -7.063000000
H     1.363000000    -0.735000000    -8.061000000
O     4.382000000     4.061000000    -8.796000000
H     4.431000000     4.124000000    -9.750000000
H     3.551000000     3.617000000    -8.627000000
O    -1.688000000    -3.728000000    -7.549000000
H    -0.913000000    -3.350000000    -7.135000000
H    -1.874000000    -3.147000000    -8.286000000
O     1.589000000     2.953000000    -8.819000000
H     1.458000000     3.323000000    -7.946000000
H     1.422000000     2.017000000    -8.710000000
O     3.224000000    -1.999000000    -9.103000000
H     3.218000000    -1.738000000    -8.181000000
H     4.073000000    -2.422000000    -9.227000000
O     4.952000000     0.718000000    -9.790000000
H     4.717000000     1.288000000    -9.057000000
H     5.245000000    -0.094000000    -9.378000000
O    -4.126000000    -1.679000000    -6.424000000
H    -4.501000000    -1.169000000    -7.142000000
H    -3.620000000    -1.043000000    -5.917000000
O     4.120000000    -3.403000000    -6.009000000
H     3.255000000    -3.785000000    -6.156000000
H     4.628000000    -3.657000000    -6.779000000
