201
-1268.47029
C     0.462000000    -5.061000000    -0.603000000
H    -0.433000000    -5.191000000     0.000000000
C     1.538000000    -4.343000000    -0.157000000
C     2.403000000    -3.888000000    -1.167000000
H     3.181000000    -3.209000000    -0.827000000
C     1.615000000    -3.681000000     1.166000000
O     0.835000000    -4.418000000     2.151000000
H     1.248000000    -2.647000000     1.099000000
O     3.030000000    -3.562000000     1.575000000
C     3.319000000    -2.388000000     2.193000000
C     3.971000000    -1.496000000     1.339000000
H     4.276000000    -1.730000000     0.322000000
C     4.255000000    -0.202000000     1.776000000
O     4.848000000     0.680000000     0.869000000
C     3.784000000     0.309000000     3.008000000
C     4.078000000     1.762000000     3.368000000
H     4.094000000     1.860000000     4.455000000
C     2.849000000     2.552000000     2.941000000
C     1.674000000     2.768000000     3.703000000
H     1.617000000     2.326000000     4.695000000
H     4.957000000     2.052000000     2.787000000
C     3.078000000    -0.659000000     3.783000000
H     2.744000000    -0.328000000     4.763000000
C     2.825000000    -1.979000000     3.394000000
C     2.027000000    -2.900000000     4.282000000
H     2.190000000    -2.642000000     5.331000000
H     2.386000000    -3.931000000     4.268000000
C     0.555000000    -2.847000000     3.999000000
C    -0.294000000    -1.929000000     4.614000000
H     0.030000000    -1.341000000     5.469000000
C     0.023000000    -3.629000000     2.974000000
C    -1.309000000    -3.607000000     2.677000000
H    -1.666000000    -4.313000000     1.931000000
C    -2.162000000    -2.708000000     3.278000000
O    -3.527000000    -2.612000000     2.944000000
C    -3.940000000    -1.598000000     2.114000000
C    -4.747000000    -2.065000000     0.882000000
C    -5.330000000    -1.114000000     0.125000000
H    -5.328000000    -0.129000000     0.586000000
C    -4.784000000    -3.342000000     0.434000000
H    -4.288000000    -4.123000000     1.003000000
O    -4.499000000    -0.476000000     2.838000000
H    -3.033000000    -1.274000000     1.584000000
C    -1.662000000    -1.874000000     4.320000000
C    -2.611000000    -0.953000000     5.000000000
H    -2.228000000    -0.776000000     6.007000000
H    -3.622000000    -1.309000000     5.212000000
C    -2.686000000     0.408000000     4.187000000
C    -1.820000000     1.467000000     4.511000000
H    -1.254000000     1.401000000     5.437000000
C    -3.603000000     0.513000000     3.162000000
C    -3.594000000     1.709000000     2.303000000
H    -4.342000000     1.693000000     1.515000000
C    -2.609000000     2.651000000     2.514000000
O    -2.471000000     3.641000000     1.561000000
C    -1.297000000     3.750000000     0.725000000
C    -1.653000000     4.126000000    -0.702000000
C    -2.933000000     4.006000000    -1.235000000
H    -3.704000000     3.653000000    -0.556000000
C    -0.690000000     4.610000000    -1.554000000
H     0.337000000     4.855000000    -1.294000000
O    -0.418000000     4.684000000     1.395000000
H    -0.804000000     2.767000000     0.723000000
C    -1.711000000     2.495000000     3.593000000
C    -0.680000000     3.617000000     3.964000000
H    -0.544000000     3.534000000     5.044000000
H    -1.151000000     4.568000000     3.706000000
C     0.602000000     3.471000000     3.179000000
C     0.690000000     4.082000000     1.941000000
C     1.908000000     3.895000000     1.162000000
H     1.945000000     4.286000000     0.149000000
C     2.939000000     3.156000000     1.644000000
O     3.988000000     2.941000000     0.801000000
C     3.920000000     1.618000000     0.151000000
H     2.885000000     1.245000000     0.172000000
C     4.295000000     1.762000000    -1.293000000
C     4.735000000     0.695000000    -2.065000000
H     4.922000000    -0.278000000    -1.619000000
C     4.103000000     3.012000000    -1.892000000
H     3.773000000     3.831000000    -1.258000000
C     4.563000000     3.251000000    -3.194000000
O     4.489000000     4.471000000    -3.879000000
C     5.055000000     2.136000000    -3.932000000
H     5.448000000     2.277000000    -4.935000000
C     5.193000000     0.912000000    -3.384000000
O     5.779000000    -0.051000000    -4.171000000
C     5.711000000    -1.404000000    -3.893000000
C     4.435000000    -2.014000000    -3.793000000
H     3.537000000    -1.502000000    -4.130000000
C     6.797000000    -2.197000000    -3.524000000
H     7.831000000    -1.869000000    -3.593000000
C     6.670000000    -3.504000000    -3.140000000
H     7.590000000    -4.060000000    -2.979000000
C     5.414000000    -4.118000000    -3.088000000
H     5.342000000    -5.174000000    -2.840000000
C     4.349000000    -3.343000000    -3.471000000
O     3.145000000    -3.924000000    -3.579000000
C     2.312000000    -4.282000000    -2.508000000
C     1.346000000    -5.202000000    -2.830000000
H     1.376000000    -5.609000000    -3.838000000
C     0.407000000    -5.588000000    -1.892000000
O    -0.643000000    -6.157000000    -2.468000000
C    -1.808000000    -6.414000000    -1.765000000
C    -2.876000000    -5.505000000    -1.932000000
H    -2.752000000    -4.640000000    -2.578000000
C    -1.903000000    -7.490000000    -0.927000000
H    -0.946000000    -7.996000000    -0.820000000
C    -3.134000000    -7.799000000    -0.236000000
H    -3.180000000    -8.697000000     0.375000000
C    -4.238000000    -6.888000000    -0.369000000
H    -5.145000000    -7.102000000     0.191000000
C    -4.086000000    -5.781000000    -1.215000000
O    -5.201000000    -5.006000000    -1.359000000
C    -5.287000000    -3.686000000    -0.827000000
C    -6.006000000    -2.700000000    -1.561000000
H    -6.479000000    -2.881000000    -2.523000000
C    -5.872000000    -1.357000000    -1.165000000
O    -6.352000000    -0.384000000    -1.942000000
C    -6.295000000     0.973000000    -1.660000000
C    -5.485000000     1.806000000    -2.423000000
H    -4.822000000     1.377000000    -3.169000000
C    -7.061000000     1.540000000    -0.674000000
H    -7.749000000     0.870000000    -0.166000000
C    -7.059000000     2.912000000    -0.455000000
H    -7.602000000     3.389000000     0.357000000
C    -6.195000000     3.748000000    -1.226000000
H    -6.127000000     4.819000000    -1.056000000
C    -5.444000000     3.219000000    -2.266000000
O    -4.567000000     4.034000000    -3.001000000
C    -3.274000000     4.267000000    -2.556000000
C    -2.327000000     4.865000000    -3.356000000
H    -2.520000000     5.199000000    -4.373000000
C    -1.046000000     4.971000000    -2.857000000
O    -0.154000000     5.676000000    -3.647000000
C     1.173000000     5.970000000    -3.301000000
C     1.469000000     7.272000000    -2.997000000
H     0.641000000     7.954000000    -2.823000000
C     2.814000000     7.665000000    -2.916000000
H     3.109000000     8.676000000    -2.646000000
C     3.840000000     6.723000000    -3.253000000
H     4.867000000     7.071000000    -3.323000000
C     3.517000000     5.376000000    -3.508000000
C     2.143000000     4.999000000    -3.564000000
H     1.777000000     4.070000000    -3.993000000
O    -2.359000000     2.039000000    -8.738000000
H    -2.213000000     2.399000000    -7.862000000
H    -2.219000000     1.098000000    -8.636000000
O     0.089000000    -0.305000000    -9.890000000
H     0.167000000     0.516000000   -10.376000000
H    -0.341000000    -0.058000000    -9.071000000
O    -1.539000000     2.780000000    -6.052000000
H    -0.597000000     2.695000000    -5.904000000
H    -1.906000000     1.954000000    -5.737000000
O    -4.429000000     0.406000000    -5.592000000
H    -3.666000000     0.651000000    -5.069000000
H    -4.193000000    -0.436000000    -5.980000000
O     0.507000000    -3.014000000    -9.044000000
H    -0.003000000    -3.694000000    -8.603000000
H    -0.148000000    -2.461000000    -9.469000000
O     1.331000000     2.207000000    -5.876000000
H     2.175000000     1.859000000    -6.166000000
H     0.912000000     1.474000000    -5.425000000
O    -2.647000000    -4.866000000    -5.869000000
H    -2.661000000    -3.981000000    -5.503000000
H    -1.818000000    -4.914000000    -6.346000000
O    -3.303000000     4.718000000    -7.068000000
H    -4.028000000     4.095000000    -7.018000000
H    -2.565000000     4.259000000    -6.667000000
O     1.543000000    -1.654000000    -6.804000000
H     0.960000000    -1.217000000    -6.183000000
H     0.966000000    -1.944000000    -7.510000000
O     3.434000000    -3.518000000    -8.084000000
H     3.175000000    -3.005000000    -7.319000000
H     2.742000000    -3.359000000    -8.725000000
O    -7.186000000     0.222000000    -4.541000000
H    -6.286000000     0.185000000    -4.864000000
H    -7.164000000    -0.258000000    -3.714000000
O    -0.450000000    -5.350000000    -7.754000000
H    -0.355000000    -6.228000000    -8.122000000
H     0.301000000    -5.253000000    -7.168000000
O    -1.305000000    -0.306000000    -7.439000000
H    -1.118000000    -0.106000000    -6.522000000
H    -2.054000000    -0.901000000    -7.406000000
O    -3.118000000    -2.388000000    -4.365000000
H    -2.944000000    -1.463000000    -4.538000000
H    -3.999000000    -2.534000000    -4.711000000
O     4.671000000     2.508000000    -7.999000000
H     4.191000000     1.888000000    -7.449000000
H     4.658000000     2.114000000    -8.871000000
O     1.467000000     4.852000000    -7.268000000
H     2.422000000     4.922000000    -7.273000000
H     1.287000000     4.064000000    -6.756000000
O     3.531000000     0.516000000    -6.562000000
H     3.039000000    -0.232000000    -6.899000000
H     3.827000000     0.238000000    -5.695000000
O    -3.537000000    -1.880000000    -7.581000000
H    -4.308000000    -2.436000000    -7.471000000
H    -3.256000000    -2.035000000    -8.483000000
O    -5.753000000    -2.949000000    -5.368000000
H    -6.158000000    -2.836000000    -6.228000000
H    -6.087000000    -3.790000000    -5.056000000
