201
-1224.25085
C    -0.073000000    -5.394000000    -0.050000000
H    -0.789000000    -5.602000000     0.741000000
C     1.086000000    -4.583000000     0.119000000
C     1.870000000    -4.323000000    -0.956000000
H     2.711000000    -3.652000000    -0.799000000
C     1.264000000    -3.819000000     1.341000000
O     0.410000000    -4.280000000     2.376000000
H     0.935000000    -2.813000000     1.039000000
O     2.675000000    -3.676000000     1.716000000
C     3.114000000    -2.439000000     2.144000000
C     4.020000000    -1.699000000     1.320000000
H     4.317000000    -2.085000000     0.348000000
C     4.402000000    -0.420000000     1.656000000
O     5.166000000     0.315000000     0.788000000
C     4.002000000     0.085000000     2.947000000
C     4.377000000     1.510000000     3.376000000
H     4.480000000     1.666000000     4.452000000
C     3.339000000     2.402000000     2.722000000
C     2.169000000     2.763000000     3.447000000
H     2.059000000     2.337000000     4.441000000
H     5.383000000     1.723000000     3.008000000
C     3.093000000    -0.643000000     3.726000000
H     2.672000000    -0.264000000     4.654000000
C     2.763000000    -1.965000000     3.397000000
C     1.903000000    -2.810000000     4.365000000
H     2.154000000    -2.639000000     5.414000000
H     2.321000000    -3.789000000     4.121000000
C     0.407000000    -2.668000000     4.163000000
C    -0.353000000    -1.719000000     4.849000000
H     0.013000000    -1.136000000     5.691000000
C    -0.158000000    -3.375000000     3.091000000
C    -1.489000000    -3.170000000     2.806000000
H    -2.027000000    -3.869000000     2.172000000
C    -2.219000000    -2.132000000     3.359000000
O    -3.484000000    -1.885000000     2.833000000
C    -3.793000000    -0.746000000     1.969000000
C    -4.572000000    -1.090000000     0.668000000
C    -5.183000000    -0.006000000    -0.035000000
H    -5.077000000     0.966000000     0.439000000
C    -4.540000000    -2.356000000     0.134000000
H    -4.002000000    -3.130000000     0.675000000
O    -4.233000000     0.372000000     2.714000000
H    -2.813000000    -0.480000000     1.548000000
C    -1.654000000    -1.331000000     4.381000000
C    -2.499000000    -0.189000000     4.999000000
H    -2.074000000     0.095000000     5.964000000
H    -3.500000000    -0.537000000     5.265000000
C    -2.513000000     1.127000000     4.169000000
C    -1.546000000     2.069000000     4.432000000
H    -0.873000000     2.008000000     5.283000000
C    -3.403000000     1.338000000     3.091000000
C    -3.220000000     2.454000000     2.269000000
H    -3.888000000     2.632000000     1.431000000
C    -2.189000000     3.315000000     2.477000000
O    -1.868000000     4.237000000     1.493000000
C    -0.864000000     3.991000000     0.522000000
C    -1.290000000     4.227000000    -0.899000000
C    -2.591000000     4.588000000    -1.190000000
H    -3.324000000     4.631000000    -0.389000000
C    -0.366000000     4.166000000    -1.928000000
H     0.672000000     3.962000000    -1.678000000
O     0.342000000     4.659000000     0.899000000
H    -0.797000000     2.894000000     0.503000000
C    -1.369000000     3.138000000     3.542000000
C    -0.133000000     4.024000000     3.681000000
H     0.173000000     4.166000000     4.720000000
H    -0.342000000     5.050000000     3.371000000
C     1.154000000     3.605000000     2.938000000
C     1.295000000     4.007000000     1.603000000
C     2.445000000     3.653000000     0.891000000
H     2.514000000     3.910000000    -0.163000000
C     3.492000000     2.987000000     1.470000000
O     4.451000000     2.532000000     0.613000000
C     4.256000000     1.207000000    -0.018000000
H     3.205000000     0.893000000     0.054000000
C     4.660000000     1.070000000    -1.479000000
C     5.169000000    -0.107000000    -2.101000000
H     5.317000000    -1.001000000    -1.500000000
C     4.464000000     2.187000000    -2.380000000
H     4.109000000     3.117000000    -1.945000000
C     4.870000000     2.093000000    -3.709000000
O     4.677000000     3.155000000    -4.544000000
C     5.313000000     0.886000000    -4.300000000
H     5.736000000     0.918000000    -5.300000000
C     5.433000000    -0.201000000    -3.457000000
O     5.978000000    -1.325000000    -3.921000000
C     5.573000000    -2.510000000    -3.556000000
C     4.300000000    -3.051000000    -3.663000000
H     3.577000000    -2.404000000    -4.153000000
C     6.438000000    -3.245000000    -2.730000000
H     7.456000000    -2.951000000    -2.490000000
C     6.083000000    -4.447000000    -2.160000000
H     6.816000000    -4.920000000    -1.511000000
C     4.756000000    -5.014000000    -2.357000000
H     4.625000000    -5.872000000    -1.703000000
C     3.893000000    -4.207000000    -3.020000000
O     2.584000000    -4.618000000    -3.200000000
C     1.701000000    -4.939000000    -2.192000000
C     0.614000000    -5.774000000    -2.351000000
H     0.548000000    -6.290000000    -3.305000000
C    -0.311000000    -5.927000000    -1.288000000
O    -1.361000000    -6.870000000    -1.413000000
C    -2.706000000    -6.530000000    -1.087000000
C    -3.357000000    -5.348000000    -1.514000000
H    -2.816000000    -4.684000000    -2.182000000
C    -3.430000000    -7.335000000    -0.177000000
H    -2.955000000    -8.254000000     0.157000000
C    -4.647000000    -6.909000000     0.327000000
H    -5.265000000    -7.555000000     0.946000000
C    -5.239000000    -5.694000000    -0.100000000
H    -6.276000000    -5.466000000     0.135000000
C    -4.585000000    -4.907000000    -1.039000000
O    -5.245000000    -3.803000000    -1.614000000
C    -5.274000000    -2.583000000    -1.012000000
C    -5.987000000    -1.577000000    -1.673000000
H    -6.641000000    -1.868000000    -2.492000000
C    -6.020000000    -0.300000000    -1.119000000
O    -6.782000000     0.667000000    -1.706000000
C    -6.475000000     1.999000000    -1.542000000
C    -5.543000000     2.727000000    -2.285000000
H    -5.021000000     2.232000000    -3.100000000
C    -7.266000000     2.624000000    -0.581000000
H    -8.077000000     2.067000000    -0.118000000
C    -7.026000000     3.980000000    -0.274000000
H    -7.616000000     4.663000000     0.333000000
C    -6.077000000     4.637000000    -1.031000000
H    -5.798000000     5.676000000    -0.874000000
C    -5.352000000     4.079000000    -2.032000000
O    -4.383000000     4.810000000    -2.701000000
C    -3.031000000     4.597000000    -2.512000000
C    -2.125000000     4.527000000    -3.550000000
H    -2.548000000     4.712000000    -4.535000000
C    -0.810000000     4.366000000    -3.290000000
O     0.138000000     4.458000000    -4.331000000
C     1.480000000     4.815000000    -4.189000000
C     1.877000000     6.120000000    -3.958000000
H     1.124000000     6.897000000    -3.852000000
C     3.246000000     6.408000000    -3.739000000
H     3.737000000     7.338000000    -3.463000000
C     4.153000000     5.322000000    -3.852000000
H     5.207000000     5.540000000    -3.702000000
C     3.757000000     4.124000000    -4.387000000
C     2.440000000     3.839000000    -4.484000000
H     2.174000000     2.822000000    -4.761000000
O    -3.510000000     1.157000000    -8.894000000
H    -4.056000000     1.939000000    -8.979000000
H    -2.848000000     1.396000000    -8.245000000
O    -1.854000000     1.939000000    -6.681000000
H    -1.123000000     2.375000000    -7.120000000
H    -1.438000000     1.322000000    -6.079000000
O    -3.924000000    -0.082000000    -5.015000000
H    -2.997000000     0.062000000    -4.824000000
H    -3.925000000    -0.576000000    -5.835000000
O    -4.065000000    -3.380000000    -7.393000000
H    -4.905000000    -3.714000000    -7.708000000
H    -4.021000000    -2.485000000    -7.728000000
O     1.939000000     1.387000000    -6.531000000
H     2.826000000     1.165000000    -6.816000000
H     1.682000000     0.663000000    -5.960000000
O    -3.355000000    -4.822000000    -5.204000000
H    -2.732000000    -4.181000000    -4.862000000
H    -3.532000000    -4.530000000    -6.099000000
O    -4.455000000     3.232000000    -6.149000000
H    -4.957000000     2.433000000    -5.989000000
H    -3.553000000     2.994000000    -5.938000000
O     0.484000000     1.406000000    -9.419000000
H     0.584000000     0.482000000    -9.190000000
H     0.615000000     1.873000000    -8.594000000
O     1.063000000    -3.401000000    -5.780000000
H     1.722000000    -3.642000000    -5.128000000
H     1.029000000    -2.445000000    -5.744000000
O    -6.189000000     1.435000000    -5.076000000
H    -6.914000000     0.849000000    -5.291000000
H    -5.427000000     0.860000000    -5.011000000
O     2.258000000    -3.392000000    -9.154000000
H     1.605000000    -3.924000000    -8.700000000
H     1.751000000    -2.699000000    -9.576000000
O     0.911000000    -5.730000000    -7.123000000
H     1.480000000    -6.298000000    -6.603000000
H     0.959000000    -4.879000000    -6.687000000
O     0.451000000    -0.992000000    -7.838000000
H    -0.376000000    -1.466000000    -7.922000000
H     0.466000000    -0.697000000    -6.927000000
O    -1.554000000    -2.877000000    -4.517000000
H    -1.563000000    -1.975000000    -4.837000000
H    -0.717000000    -3.230000000    -4.820000000
O     0.562000000     3.446000000    -7.559000000
H     0.922000000     4.294000000    -7.301000000
H     1.044000000     2.810000000    -7.030000000
O     3.930000000    -1.955000000    -7.082000000
H     4.356000000    -1.702000000    -7.901000000
H     3.224000000    -2.542000000    -7.351000000
O     4.736000000     1.273000000    -7.851000000
H     4.746000000     0.640000000    -8.569000000
H     5.602000000     1.194000000    -7.450000000
O    -5.794000000    -3.435000000    -4.572000000
H    -5.072000000    -3.260000000    -5.176000000
H    -5.383000000    -3.880000000    -3.831000000
O    -1.577000000    -2.842000000    -8.485000000
H    -2.352000000    -3.038000000    -7.960000000
H    -1.360000000    -3.671000000    -8.912000000
