201
-1240.79012
C    -0.432000000    -4.753000000    -1.419000000
H    -1.402000000    -4.883000000    -0.945000000
C     0.683000000    -4.340000000    -0.630000000
C     1.914000000    -4.231000000    -1.211000000
H     2.740000000    -3.770000000    -0.675000000
C     0.493000000    -4.034000000     0.841000000
O    -0.703000000    -4.734000000     1.344000000
H     0.226000000    -2.979000000     1.004000000
O     1.713000000    -4.303000000     1.585000000
C     2.205000000    -3.310000000     2.362000000
C     3.190000000    -2.503000000     1.870000000
H     3.664000000    -2.707000000     0.913000000
C     3.562000000    -1.431000000     2.597000000
O     4.505000000    -0.610000000     1.992000000
C     2.907000000    -0.975000000     3.794000000
C     3.414000000     0.235000000     4.578000000
H     3.227000000     0.042000000     5.637000000
C     2.696000000     1.494000000     4.067000000
C     1.488000000     1.874000000     4.650000000
H     1.090000000     1.225000000     5.426000000
H     4.493000000     0.229000000     4.412000000
C     1.883000000    -1.784000000     4.306000000
H     1.340000000    -1.559000000     5.219000000
C     1.483000000    -2.927000000     3.540000000
C     0.321000000    -3.810000000     4.039000000
H     0.192000000    -3.769000000     5.123000000
H     0.621000000    -4.851000000     3.901000000
C    -1.024000000    -3.442000000     3.347000000
C    -1.799000000    -2.531000000     4.081000000
H    -1.443000000    -2.012000000     4.967000000
C    -1.484000000    -4.025000000     2.221000000
C    -2.691000000    -3.625000000     1.719000000
H    -3.009000000    -3.989000000     0.746000000
C    -3.423000000    -2.648000000     2.323000000
O    -4.444000000    -2.125000000     1.636000000
C    -4.189000000    -0.921000000     0.985000000
C    -4.589000000    -0.947000000    -0.501000000
C    -4.528000000     0.286000000    -1.202000000
H    -4.285000000     1.201000000    -0.668000000
C    -4.885000000    -2.141000000    -1.195000000
H    -4.980000000    -3.126000000    -0.744000000
O    -4.719000000     0.214000000     1.702000000
H    -3.108000000    -0.726000000     0.945000000
C    -3.017000000    -2.121000000     3.574000000
C    -3.766000000    -0.925000000     4.139000000
H    -3.516000000    -0.828000000     5.197000000
H    -4.853000000    -0.905000000     4.039000000
C    -3.271000000     0.461000000     3.598000000
C    -2.328000000     1.204000000     4.353000000
H    -1.931000000     0.900000000     5.318000000
C    -3.770000000     0.921000000     2.348000000
C    -3.234000000     2.119000000     1.874000000
H    -3.663000000     2.463000000     0.936000000
C    -2.334000000     2.898000000     2.583000000
O    -1.866000000     4.061000000     2.028000000
C    -0.611000000     4.043000000     1.378000000
C    -0.643000000     4.876000000     0.067000000
C    -1.839000000     4.906000000    -0.612000000
H    -2.663000000     4.279000000    -0.280000000
C     0.478000000     5.610000000    -0.362000000
H     1.427000000     5.514000000     0.160000000
O     0.462000000     4.594000000     2.232000000
H    -0.496000000     2.969000000     1.170000000
C    -1.818000000     2.417000000     3.799000000
C    -0.767000000     3.227000000     4.575000000
H    -0.728000000     3.005000000     5.644000000
H    -0.866000000     4.313000000     4.534000000
C     0.665000000     2.865000000     4.059000000
C     1.135000000     3.602000000     2.929000000
C     2.382000000     3.285000000     2.462000000
H     2.734000000     3.719000000     1.530000000
C     3.124000000     2.184000000     2.930000000
O     4.218000000     1.789000000     2.163000000
C     3.913000000     0.651000000     1.395000000
H     2.842000000     0.416000000     1.308000000
C     4.358000000     0.784000000    -0.054000000
C     5.101000000    -0.225000000    -0.575000000
H     5.406000000    -1.119000000    -0.037000000
C     4.021000000     1.877000000    -0.817000000
H     3.374000000     2.656000000    -0.421000000
C     4.561000000     2.010000000    -2.149000000
O     4.198000000     3.046000000    -2.987000000
C     5.145000000     0.955000000    -2.693000000
H     5.495000000     1.089000000    -3.714000000
C     5.372000000    -0.194000000    -1.924000000
O     6.235000000    -1.079000000    -2.508000000
C     6.053000000    -2.497000000    -2.401000000
C     4.842000000    -2.953000000    -2.883000000
H     4.174000000    -2.222000000    -3.331000000
C     6.939000000    -3.290000000    -1.723000000
H     7.861000000    -2.817000000    -1.394000000
C     6.676000000    -4.624000000    -1.511000000
H     7.420000000    -5.195000000    -0.962000000
C     5.548000000    -5.202000000    -2.096000000
H     5.350000000    -6.246000000    -1.866000000
C     4.604000000    -4.338000000    -2.728000000
O     3.399000000    -4.866000000    -3.059000000
C     2.115000000    -4.674000000    -2.512000000
C     1.028000000    -5.036000000    -3.308000000
H     1.169000000    -5.371000000    -4.333000000
C    -0.230000000    -5.016000000    -2.791000000
O    -1.297000000    -5.422000000    -3.559000000
C    -2.631000000    -5.436000000    -3.315000000
C    -3.342000000    -4.263000000    -3.191000000
H    -2.801000000    -3.323000000    -3.270000000
C    -3.282000000    -6.674000000    -3.252000000
H    -2.813000000    -7.653000000    -3.298000000
C    -4.687000000    -6.689000000    -3.220000000
H    -5.216000000    -7.636000000    -3.286000000
C    -5.407000000    -5.544000000    -3.304000000
H    -6.486000000    -5.675000000    -3.287000000
C    -4.740000000    -4.308000000    -3.242000000
O    -5.513000000    -3.121000000    -3.246000000
C    -5.209000000    -2.016000000    -2.564000000
C    -5.027000000    -0.846000000    -3.251000000
H    -5.245000000    -0.886000000    -4.315000000
C    -4.731000000     0.302000000    -2.541000000
O    -4.809000000     1.448000000    -3.266000000
C    -4.956000000     2.724000000    -2.772000000
C    -3.889000000     3.620000000    -2.966000000
H    -2.991000000     3.328000000    -3.505000000
C    -6.157000000     3.112000000    -2.181000000
H    -6.931000000     2.355000000    -2.081000000
C    -6.298000000     4.437000000    -1.762000000
H    -7.273000000     4.716000000    -1.370000000
C    -5.229000000     5.369000000    -1.914000000
H    -5.279000000     6.420000000    -1.641000000
C    -4.053000000     4.919000000    -2.556000000
O    -3.032000000     5.805000000    -2.521000000
C    -1.868000000     5.622000000    -1.833000000
C    -0.790000000     6.324000000    -2.298000000
H    -0.739000000     6.879000000    -3.231000000
C     0.429000000     6.268000000    -1.562000000
O     1.542000000     6.986000000    -1.876000000
C     2.755000000     6.350000000    -2.118000000
C     3.942000000     7.079000000    -1.948000000
H     3.788000000     8.128000000    -1.710000000
C     5.180000000     6.416000000    -2.119000000
H     6.142000000     6.921000000    -2.115000000
C     5.281000000     5.097000000    -2.559000000
H     6.277000000     4.721000000    -2.781000000
C     4.093000000     4.389000000    -2.685000000
C     2.843000000     5.016000000    -2.561000000
H     1.924000000     4.516000000    -2.857000000
O    -2.604000000     3.527000000    -8.574000000
H    -2.677000000     2.946000000    -7.817000000
H    -3.319000000     3.259000000    -9.151000000
O    -0.281000000     3.667000000    -5.104000000
H     0.675000000     3.627000000    -5.139000000
H    -0.545000000     2.807000000    -4.777000000
O    -2.696000000     1.247000000    -6.687000000
H    -1.812000000     1.172000000    -6.329000000
H    -2.734000000     0.580000000    -7.373000000
O     1.089000000     6.046000000    -6.852000000
H     1.090000000     5.093000000    -6.758000000
H     0.188000000     6.305000000    -6.660000000
O    -2.996000000    -3.911000000    -6.619000000
H    -2.956000000    -3.088000000    -6.132000000
H    -2.120000000    -4.285000000    -6.528000000
O    -2.838000000    -0.932000000    -8.488000000
H    -3.076000000    -1.793000000    -8.832000000
H    -1.894000000    -0.986000000    -8.338000000
O     2.262000000     3.227000000    -6.045000000
H     3.145000000     2.873000000    -6.152000000
H     1.723000000     2.707000000    -6.641000000
O    -1.380000000     5.947000000    -6.051000000
H    -1.218000000     5.025000000    -5.848000000
H    -2.032000000     5.927000000    -6.752000000
O    -4.934000000     2.874000000    -5.999000000
H    -5.397000000     2.381000000    -5.322000000
H    -4.181000000     2.326000000    -6.221000000
O     1.466000000    -2.939000000    -6.440000000
H     1.272000000    -2.062000000    -6.109000000
H     2.422000000    -2.985000000    -6.449000000
O     4.834000000     1.940000000    -6.830000000
H     4.335000000     1.259000000    -6.379000000
H     5.344000000     1.468000000    -7.488000000
O     3.774000000    -0.294000000    -5.669000000
H     4.176000000    -1.148000000    -5.832000000
H     2.884000000    -0.500000000    -5.381000000
O     1.157000000     1.279000000    -7.705000000
H     0.659000000     1.004000000    -8.474000000
H     0.638000000     0.974000000    -6.961000000
O    -0.340000000    -4.717000000    -7.057000000
H     0.301000000    -4.051000000    -6.809000000
H     0.186000000    -5.493000000    -7.253000000
O     3.212000000     1.347000000    -9.559000000
H     2.344000000     1.652000000    -9.293000000
H     3.764000000     1.496000000    -8.791000000
O    -1.483000000    -1.775000000    -5.377000000
H    -1.704000000    -0.926000000    -5.761000000
H    -0.600000000    -1.656000000    -5.026000000
O     4.333000000    -3.238000000    -6.466000000
H     5.165000000    -3.453000000    -6.045000000
H     4.581000000    -2.763000000    -7.259000000
O     0.127000000     3.750000000    -8.695000000
H     0.531000000     3.041000000    -8.195000000
H    -0.814000000     3.619000000    -8.581000000
O    -0.486000000    -2.116000000    -8.394000000
H    -0.259000000    -2.630000000    -9.169000000
H     0.201000000    -2.322000000    -7.760000000
