201
-1258.92203
C    -0.447000000    -4.531000000    -2.100000000
H    -1.288000000    -4.722000000    -1.439000000
C     0.870000000    -4.197000000    -1.598000000
C     1.880000000    -3.892000000    -2.536000000
H     2.809000000    -3.435000000    -2.207000000
C     1.195000000    -3.974000000    -0.156000000
O     0.401000000    -4.880000000     0.671000000
H     0.964000000    -2.942000000     0.145000000
O     2.580000000    -4.189000000     0.172000000
C     3.177000000    -3.201000000     0.892000000
C     3.899000000    -2.098000000     0.370000000
H     4.198000000    -2.151000000    -0.673000000
C     4.289000000    -1.003000000     1.107000000
O     4.886000000     0.062000000     0.527000000
C     4.008000000    -1.049000000     2.460000000
C     4.346000000     0.108000000     3.403000000
H     4.629000000    -0.237000000     4.400000000
C     3.318000000     1.269000000     3.378000000
C     2.232000000     1.386000000     4.234000000
H     2.055000000     0.545000000     4.900000000
H     5.269000000     0.522000000     2.991000000
C     3.337000000    -2.136000000     3.088000000
H     3.176000000    -2.081000000     4.162000000
C     2.809000000    -3.178000000     2.317000000
C     1.971000000    -4.238000000     2.967000000
H     2.190000000    -4.301000000     4.035000000
H     2.224000000    -5.194000000     2.505000000
C     0.475000000    -3.897000000     2.869000000
C    -0.236000000    -3.206000000     3.855000000
H     0.261000000    -2.907000000     4.774000000
C    -0.262000000    -4.370000000     1.769000000
C    -1.581000000    -4.135000000     1.603000000
H    -2.037000000    -4.347000000     0.639000000
C    -2.321000000    -3.501000000     2.580000000
O    -3.544000000    -3.085000000     2.406000000
C    -3.671000000    -1.775000000     1.742000000
C    -4.599000000    -1.772000000     0.554000000
C    -4.982000000    -0.523000000    -0.030000000
H    -4.766000000     0.419000000     0.466000000
C    -4.986000000    -2.960000000    -0.149000000
H    -4.703000000    -3.857000000     0.396000000
O    -4.089000000    -0.850000000     2.676000000
H    -2.686000000    -1.474000000     1.353000000
C    -1.619000000    -3.040000000     3.700000000
C    -2.274000000    -2.042000000     4.651000000
H    -1.864000000    -2.244000000     5.643000000
H    -3.322000000    -2.329000000     4.765000000
C    -2.214000000    -0.595000000     4.184000000
C    -1.323000000     0.226000000     4.748000000
H    -0.591000000    -0.180000000     5.441000000
C    -3.057000000    -0.084000000     3.203000000
C    -2.953000000     1.263000000     2.837000000
H    -3.800000000     1.562000000     2.224000000
C    -1.898000000     2.051000000     3.322000000
O    -1.878000000     3.358000000     2.837000000
C    -0.739000000     3.588000000     1.931000000
C    -1.178000000     4.468000000     0.773000000
C    -2.518000000     4.601000000     0.439000000
H    -3.223000000     4.188000000     1.156000000
C    -0.236000000     5.148000000     0.046000000
H     0.781000000     5.169000000     0.430000000
O     0.312000000     4.154000000     2.722000000
H    -0.364000000     2.655000000     1.484000000
C    -1.143000000     1.519000000     4.339000000
C     0.013000000     2.286000000     5.022000000
H     0.341000000     1.888000000     5.985000000
H    -0.234000000     3.333000000     5.208000000
C     1.238000000     2.349000000     4.064000000
C     1.364000000     3.346000000     3.089000000
C     2.513000000     3.254000000     2.320000000
H     2.543000000     3.905000000     1.450000000
C     3.462000000     2.330000000     2.440000000
O     4.424000000     2.188000000     1.404000000
C     4.091000000     1.270000000     0.356000000
H     3.034000000     0.967000000     0.399000000
C     4.371000000     1.778000000    -0.975000000
C     4.501000000     0.926000000    -2.095000000
H     4.358000000    -0.149000000    -2.012000000
C     4.380000000     3.161000000    -1.320000000
H     4.080000000     3.818000000    -0.508000000
C     4.647000000     3.670000000    -2.576000000
O     4.642000000     5.061000000    -2.722000000
C     4.705000000     2.808000000    -3.650000000
H     4.844000000     3.168000000    -4.666000000
C     4.600000000     1.432000000    -3.393000000
O     4.531000000     0.624000000    -4.503000000
C     4.606000000    -0.733000000    -4.518000000
C     3.525000000    -1.547000000    -4.671000000
H     2.543000000    -1.236000000    -5.017000000
C     5.870000000    -1.213000000    -4.193000000
H     6.711000000    -0.527000000    -4.136000000
C     6.052000000    -2.564000000    -3.949000000
H     7.005000000    -2.980000000    -3.630000000
C     4.978000000    -3.398000000    -4.285000000
H     5.035000000    -4.483000000    -4.260000000
C     3.740000000    -2.877000000    -4.613000000
O     2.633000000    -3.762000000    -4.840000000
C     1.653000000    -4.059000000    -3.885000000
C     0.408000000    -4.396000000    -4.352000000
H     0.215000000    -4.632000000    -5.396000000
C    -0.590000000    -4.619000000    -3.457000000
O    -1.792000000    -4.993000000    -4.033000000
C    -2.863000000    -5.388000000    -3.256000000
C    -3.870000000    -4.496000000    -3.014000000
H    -3.866000000    -3.481000000    -3.402000000
C    -2.917000000    -6.718000000    -2.842000000
H    -2.141000000    -7.410000000    -3.161000000
C    -4.084000000    -7.109000000    -2.212000000
H    -4.194000000    -8.163000000    -1.970000000
C    -5.137000000    -6.229000000    -1.889000000
H    -6.080000000    -6.584000000    -1.480000000
C    -4.979000000    -4.900000000    -2.298000000
O    -5.986000000    -4.030000000    -1.915000000
C    -5.732000000    -2.884000000    -1.284000000
C    -6.042000000    -1.701000000    -1.863000000
H    -6.569000000    -1.692000000    -2.813000000
C    -5.659000000    -0.503000000    -1.247000000
O    -5.859000000     0.760000000    -1.906000000
C    -5.905000000     1.987000000    -1.254000000
C    -4.970000000     2.995000000    -1.496000000
H    -4.180000000     2.835000000    -2.224000000
C    -6.928000000     2.219000000    -0.382000000
H    -7.656000000     1.416000000    -0.298000000
C    -7.071000000     3.484000000     0.281000000
H    -7.828000000     3.620000000     1.050000000
C    -6.136000000     4.478000000     0.047000000
H    -6.280000000     5.366000000     0.657000000
C    -5.068000000     4.255000000    -0.870000000
O    -4.187000000     5.294000000    -1.188000000
C    -2.842000000     5.230000000    -0.816000000
C    -1.845000000     5.934000000    -1.563000000
H    -2.092000000     6.517000000    -2.446000000
C    -0.549000000     5.900000000    -1.085000000
O     0.372000000     6.816000000    -1.591000000
C     1.715000000     6.783000000    -1.351000000
C     2.339000000     7.648000000    -0.533000000
H     1.750000000     8.382000000     0.011000000
C     3.720000000     7.565000000    -0.291000000
H     4.134000000     8.297000000     0.398000000
C     4.478000000     6.721000000    -1.029000000
H     5.549000000     6.746000000    -0.845000000
C     3.882000000     5.880000000    -1.974000000
C     2.464000000     5.921000000    -2.192000000
H     1.961000000     5.333000000    -2.955000000
O    -1.710000000    -5.874000000    -6.645000000
H    -2.058000000    -6.677000000    -7.033000000
H    -1.773000000    -6.017000000    -5.701000000
O    -3.379000000    -0.659000000    -9.823000000
H    -2.442000000    -0.465000000    -9.819000000
H    -3.651000000    -0.549000000    -8.912000000
O    -6.108000000     0.526000000    -4.934000000
H    -5.816000000     0.560000000    -4.023000000
H    -6.642000000     1.313000000    -5.044000000
O    -1.152000000     3.661000000    -6.907000000
H    -1.394000000     2.741000000    -7.009000000
H    -1.555000000     4.099000000    -7.658000000
O    -1.177000000    -5.020000000    -9.747000000
H    -0.954000000    -4.508000000    -8.970000000
H    -1.716000000    -4.432000000   -10.275000000
O    -4.320000000    -4.524000000    -8.758000000
H    -4.281000000    -4.024000000    -9.573000000
H    -3.429000000    -4.852000000    -8.635000000
O    -4.666000000    -0.684000000    -7.305000000
H    -4.347000000    -1.539000000    -7.017000000
H    -4.832000000    -0.205000000    -6.494000000
O    -1.486000000     2.247000000    -2.404000000
H    -0.530000000     2.239000000    -2.449000000
H    -1.723000000     1.349000000    -2.174000000
O     1.076000000     2.695000000    -5.753000000
H     0.313000000     2.982000000    -6.255000000
H     1.408000000     1.937000000    -6.235000000
O    -3.422000000     1.918000000    -4.642000000
H    -2.752000000     1.933000000    -3.959000000
H    -2.967000000     1.590000000    -5.418000000
O    -6.440000000    -0.200000000    -9.154000000
H    -5.794000000    -0.265000000    -8.451000000
H    -7.153000000    -0.775000000    -8.878000000
O    -5.088000000    -3.629000000    -6.077000000
H    -4.822000000    -3.796000000    -6.981000000
H    -4.326000000    -3.210000000    -5.676000000
O     1.302000000     2.265000000    -3.060000000
H     1.800000000     1.451000000    -2.995000000
H     1.344000000     2.498000000    -3.987000000
O    -7.432000000    -1.730000000    -5.990000000
H    -6.688000000    -2.329000000    -5.941000000
H    -7.247000000    -1.062000000    -5.330000000
O     0.953000000     0.147000000    -6.910000000
H     1.146000000    -0.406000000    -7.667000000
H     0.125000000    -0.191000000    -6.571000000
O    -1.946000000     1.137000000    -7.113000000
H    -1.673000000     1.181000000    -8.029000000
H    -1.943000000     0.202000000    -6.907000000
O     1.342000000    -5.468000000    -7.927000000
H     2.019000000    -4.815000000    -7.753000000
H     0.521000000    -4.977000000    -7.888000000
O    -0.922000000     0.639000000    -9.704000000
H    -0.905000000     1.575000000    -9.905000000
H    -0.037000000     0.335000000    -9.907000000
O    -0.690000000    -3.535000000    -7.567000000
H    -0.952000000    -4.326000000    -7.096000000
H    -1.035000000    -2.816000000    -7.039000000
