201
-1257.30359
C    -0.015000000    -5.347000000    -1.504000000
H    -0.885000000    -5.507000000    -0.871000000
C     1.095000000    -4.623000000    -0.970000000
C     2.128000000    -4.208000000    -1.842000000
H     2.916000000    -3.581000000    -1.434000000
C     1.107000000    -4.178000000     0.484000000
O     0.213000000    -4.897000000     1.387000000
H     0.740000000    -3.142000000     0.447000000
O     2.385000000    -4.219000000     1.029000000
C     2.852000000    -3.196000000     1.869000000
C     3.899000000    -2.386000000     1.299000000
H     4.226000000    -2.598000000     0.284000000
C     4.353000000    -1.261000000     2.016000000
O     4.998000000    -0.346000000     1.203000000
C     3.833000000    -0.989000000     3.268000000
C     4.151000000     0.266000000     3.982000000
H     4.120000000     0.037000000     5.049000000
C     3.186000000     1.364000000     3.672000000
C     1.985000000     1.520000000     4.386000000
H     1.687000000     0.839000000     5.178000000
H     5.176000000     0.605000000     3.817000000
C     2.871000000    -1.835000000     3.853000000
H     2.363000000    -1.585000000     4.782000000
C     2.365000000    -2.956000000     3.151000000
C     1.381000000    -3.894000000     3.798000000
H     1.427000000    -3.898000000     4.889000000
H     1.694000000    -4.922000000     3.605000000
C    -0.084000000    -3.651000000     3.432000000
C    -0.878000000    -2.833000000     4.246000000
H    -0.499000000    -2.558000000     5.227000000
C    -0.627000000    -4.200000000     2.288000000
C    -1.862000000    -3.814000000     1.837000000
H    -2.209000000    -4.237000000     0.898000000
C    -2.553000000    -2.866000000     2.554000000
O    -3.738000000    -2.350000000     1.998000000
C    -3.813000000    -0.984000000     1.496000000
C    -4.465000000    -0.820000000     0.141000000
C    -5.248000000     0.342000000    -0.213000000
H    -5.522000000     1.165000000     0.443000000
C    -4.126000000    -1.697000000    -0.872000000
H    -3.378000000    -2.454000000    -0.650000000
O    -4.385000000    -0.092000000     2.391000000
H    -2.781000000    -0.711000000     1.231000000
C    -2.178000000    -2.489000000     3.822000000
C    -2.914000000    -1.417000000     4.687000000
H    -2.588000000    -1.382000000     5.729000000
H    -3.943000000    -1.731000000     4.877000000
C    -2.724000000     0.054000000     4.190000000
C    -1.731000000     0.819000000     4.826000000
H    -1.130000000     0.352000000     5.602000000
C    -3.464000000     0.629000000     3.127000000
C    -3.196000000     1.904000000     2.659000000
H    -3.845000000     2.391000000     1.937000000
C    -2.137000000     2.602000000     3.230000000
O    -1.767000000     3.785000000     2.586000000
C    -0.777000000     3.636000000     1.504000000
C    -1.224000000     4.325000000     0.246000000
C    -2.552000000     4.646000000    -0.039000000
H    -3.355000000     4.541000000     0.686000000
C    -0.258000000     4.414000000    -0.774000000
H     0.792000000     4.161000000    -0.651000000
O     0.462000000     4.051000000     2.031000000
H    -0.792000000     2.587000000     1.174000000
C    -1.366000000     2.110000000     4.253000000
C    -0.165000000     2.820000000     4.773000000
H     0.074000000     2.505000000     5.790000000
H    -0.349000000     3.894000000     4.851000000
C     1.062000000     2.521000000     3.910000000
C     1.384000000     3.291000000     2.745000000
C     2.577000000     3.121000000     2.064000000
H     2.669000000     3.547000000     1.068000000
C     3.504000000     2.201000000     2.565000000
O     4.490000000     1.967000000     1.649000000
C     4.337000000     0.835000000     0.738000000
H     3.262000000     0.603000000     0.776000000
C     4.710000000     1.190000000    -0.658000000
C     5.283000000     0.157000000    -1.464000000
H     5.336000000    -0.888000000    -1.167000000
C     4.503000000     2.483000000    -1.233000000
H     4.250000000     3.345000000    -0.621000000
C     4.855000000     2.769000000    -2.526000000
O     4.918000000     4.077000000    -2.929000000
C     5.293000000     1.719000000    -3.349000000
H     5.581000000     2.058000000    -4.341000000
C     5.662000000     0.486000000    -2.756000000
O     6.077000000    -0.480000000    -3.590000000
C     5.819000000    -1.868000000    -3.401000000
C     4.607000000    -2.410000000    -3.815000000
H     3.895000000    -1.781000000    -4.343000000
C     6.711000000    -2.645000000    -2.706000000
H     7.658000000    -2.190000000    -2.428000000
C     6.431000000    -4.022000000    -2.561000000
H     7.090000000    -4.655000000    -1.973000000
C     5.280000000    -4.555000000    -3.087000000
H     5.099000000    -5.626000000    -3.123000000
C     4.317000000    -3.763000000    -3.643000000
O     3.093000000    -4.213000000    -4.045000000
C     2.066000000    -4.586000000    -3.170000000
C     0.986000000    -5.305000000    -3.691000000
H     0.904000000    -5.428000000    -4.767000000
C    -0.068000000    -5.607000000    -2.843000000
O    -1.167000000    -6.169000000    -3.457000000
C    -2.440000000    -5.698000000    -3.302000000
C    -2.698000000    -4.308000000    -3.290000000
H    -1.824000000    -3.670000000    -3.397000000
C    -3.529000000    -6.565000000    -3.092000000
H    -3.440000000    -7.648000000    -3.098000000
C    -4.820000000    -6.082000000    -2.871000000
H    -5.653000000    -6.775000000    -2.785000000
C    -5.041000000    -4.703000000    -2.945000000
H    -6.084000000    -4.401000000    -2.906000000
C    -3.968000000    -3.868000000    -3.072000000
O    -4.191000000    -2.480000000    -3.244000000
C    -4.480000000    -1.504000000    -2.225000000
C    -5.370000000    -0.465000000    -2.523000000
H    -5.806000000    -0.427000000    -3.518000000
C    -5.729000000     0.453000000    -1.556000000
O    -6.648000000     1.418000000    -1.952000000
C    -6.558000000     2.688000000    -1.522000000
C    -5.304000000     3.402000000    -1.554000000
H    -4.436000000     2.846000000    -1.898000000
C    -7.697000000     3.386000000    -1.171000000
H    -8.656000000     2.910000000    -0.982000000
C    -7.618000000     4.726000000    -0.760000000
H    -8.534000000     5.213000000    -0.434000000
C    -6.407000000     5.351000000    -0.849000000
H    -6.405000000     6.436000000    -0.779000000
C    -5.228000000     4.736000000    -1.208000000
O    -4.186000000     5.564000000    -1.499000000
C    -2.929000000     5.104000000    -1.291000000
C    -2.035000000     5.310000000    -2.274000000
H    -2.176000000     5.839000000    -3.213000000
C    -0.663000000     4.996000000    -1.997000000
O     0.283000000     5.039000000    -2.991000000
C     1.583000000     5.490000000    -2.723000000
C     1.779000000     6.708000000    -2.037000000
H     0.963000000     7.385000000    -1.800000000
C     3.101000000     7.010000000    -1.641000000
H     3.238000000     7.965000000    -1.142000000
C     4.135000000     6.106000000    -1.904000000
H     5.146000000     6.325000000    -1.572000000
C     3.948000000     5.056000000    -2.684000000
C     2.617000000     4.675000000    -3.019000000
H     2.388000000     3.727000000    -3.501000000
O     0.260000000     3.909000000    -8.385000000
H     0.175000000     3.792000000    -7.439000000
H     0.797000000     4.696000000    -8.481000000
O    -6.735000000     2.738000000    -4.646000000
H    -6.995000000     2.284000000    -3.845000000
H    -5.779000000     2.703000000    -4.641000000
O    -0.431000000    -0.548000000    -8.810000000
H    -0.513000000    -0.746000000    -9.743000000
H     0.222000000     0.150000000    -8.770000000
O     1.020000000    -3.792000000    -7.970000000
H     0.481000000    -3.309000000    -7.343000000
H     0.569000000    -3.683000000    -8.808000000
O    -2.780000000    -0.304000000    -5.740000000
H    -2.483000000     0.319000000    -5.077000000
H    -3.174000000     0.240000000    -6.422000000
O    -3.956000000     2.681000000    -4.814000000
H    -3.131000000     2.211000000    -4.699000000
H    -3.696000000     3.548000000    -5.126000000
O     3.624000000     5.008000000    -7.314000000
H     4.553000000     5.035000000    -7.083000000
H     3.346000000     4.122000000    -7.082000000
O    -4.841000000     6.809000000    -4.902000000
H    -4.158000000     6.185000000    -5.151000000
H    -4.484000000     7.262000000    -4.138000000
O     1.621000000    -0.270000000    -5.849000000
H     0.864000000    -0.853000000    -5.912000000
H     1.262000000     0.553000000    -5.518000000
O     2.741000000     2.642000000    -6.202000000
H     2.222000000     2.368000000    -5.446000000
H     3.639000000     2.400000000    -5.977000000
O    -0.472000000    -1.962000000    -6.589000000
H    -1.286000000    -1.652000000    -6.193000000
H    -0.408000000    -1.480000000    -7.414000000
O     3.770000000    -1.268000000    -7.419000000
H     3.646000000    -2.123000000    -7.832000000
H     2.973000000    -1.131000000    -6.908000000
O    -5.367000000    -2.135000000    -5.621000000
H    -4.671000000    -1.480000000    -5.685000000
H    -5.169000000    -2.616000000    -4.817000000
O    -0.017000000     4.155000000    -5.834000000
H     0.050000000     4.706000000    -5.053000000
H     0.056000000     3.260000000    -5.502000000
O    -4.262000000     1.593000000    -7.304000000
H    -4.204000000     2.210000000    -6.575000000
H    -3.760000000     2.005000000    -8.007000000
O    -2.322000000     3.086000000    -8.864000000
H    -1.496000000     3.567000000    -8.810000000
H    -2.223000000     2.525000000    -9.633000000
O    -2.713000000     5.058000000    -5.865000000
H    -2.799000000     5.722000000    -6.549000000
H    -1.877000000     4.630000000    -6.049000000
O     1.606000000     1.348000000    -8.986000000
H     2.491000000     1.437000000    -8.631000000
H     1.082000000     1.970000000    -8.482000000
O    -0.024000000     7.926000000    -6.842000000
H     0.727000000     7.692000000    -7.388000000
H    -0.622000000     7.184000000    -6.926000000
