201
-1268.26149
C    -4.343000000    -1.140000000    -3.003000000
H    -4.168000000    -0.467000000    -3.839000000
C    -4.359000000    -0.697000000    -1.682000000
C    -4.731000000    -1.658000000    -0.762000000
H    -4.804000000    -1.297000000     0.261000000
C    -3.848000000     0.695000000    -1.383000000
O    -4.035000000     1.552000000    -2.527000000
H    -2.830000000     0.657000000    -0.968000000
O    -4.657000000     1.339000000    -0.372000000
C    -3.983000000     2.068000000     0.608000000
C    -3.960000000     1.586000000     1.899000000
H    -4.274000000     0.560000000     2.071000000
C    -3.366000000     2.220000000     2.975000000
O    -2.997000000     1.564000000     4.099000000
C    -2.802000000     3.465000000     2.704000000
C    -1.855000000     4.144000000     3.725000000
H    -2.137000000     5.199000000     3.706000000
C    -0.428000000     3.589000000     3.512000000
C     0.432000000     4.301000000     2.715000000
H     0.054000000     5.190000000     2.216000000
H    -2.096000000     3.791000000     4.730000000
C    -2.954000000     4.033000000     1.433000000
H    -2.531000000     5.028000000     1.321000000
C    -3.575000000     3.379000000     0.407000000
C    -3.710000000     4.011000000    -1.003000000
H    -3.607000000     5.086000000    -0.840000000
H    -4.693000000     3.738000000    -1.391000000
C    -2.653000000     3.519000000    -1.989000000
C    -1.459000000     4.210000000    -2.133000000
H    -1.256000000     5.120000000    -1.574000000
C    -2.878000000     2.323000000    -2.677000000
C    -1.925000000     1.729000000    -3.487000000
H    -2.176000000     0.837000000    -4.055000000
C    -0.727000000     2.397000000    -3.666000000
O     0.294000000     1.816000000    -4.463000000
C     1.444000000     1.235000000    -3.832000000
C     1.858000000    -0.104000000    -4.439000000
C     3.170000000    -0.579000000    -4.401000000
H     3.945000000     0.120000000    -4.097000000
C     0.803000000    -1.000000000    -4.851000000
H    -0.211000000    -0.648000000    -5.025000000
O     2.633000000     2.099000000    -3.766000000
H     1.098000000     1.022000000    -2.810000000
C    -0.527000000     3.632000000    -3.079000000
C     0.747000000     4.453000000    -3.286000000
H     0.615000000     5.536000000    -3.246000000
H     1.141000000     4.381000000    -4.302000000
C     1.745000000     3.936000000    -2.312000000
C     1.742000000     4.481000000    -0.988000000
H     1.079000000     5.315000000    -0.770000000
C     2.717000000     2.923000000    -2.668000000
C     3.574000000     2.540000000    -1.641000000
H     4.236000000     1.697000000    -1.827000000
C     3.534000000     3.048000000    -0.356000000
O     4.302000000     2.442000000     0.585000000
C     3.655000000     1.543000000     1.461000000
C     4.367000000     0.215000000     1.651000000
C     5.044000000    -0.306000000     0.586000000
H     5.030000000     0.290000000    -0.323000000
C     4.341000000    -0.504000000     2.821000000
H     3.670000000    -0.232000000     3.631000000
O     3.505000000     2.216000000     2.791000000
H     2.627000000     1.411000000     1.092000000
C     2.643000000     4.082000000    -0.027000000
C     2.549000000     4.595000000     1.428000000
H     2.300000000     5.656000000     1.368000000
H     3.574000000     4.609000000     1.804000000
C     1.696000000     3.770000000     2.372000000
C     2.242000000     2.694000000     3.049000000
C     1.401000000     2.046000000     3.955000000
H     1.755000000     1.135000000     4.431000000
C     0.102000000     2.446000000     4.200000000
O    -0.682000000     1.579000000     4.872000000
C    -1.663000000     0.877000000     4.099000000
H    -1.229000000     0.904000000     3.088000000
C    -1.808000000    -0.575000000     4.581000000
C    -3.011000000    -1.287000000     4.445000000
H    -3.789000000    -0.904000000     3.791000000
C    -0.644000000    -1.261000000     4.997000000
H     0.336000000    -0.792000000     5.036000000
C    -0.733000000    -2.603000000     5.312000000
O     0.415000000    -3.314000000     5.596000000
C    -1.872000000    -3.341000000     5.188000000
H    -1.845000000    -4.427000000     5.231000000
C    -3.039000000    -2.709000000     4.793000000
O    -4.102000000    -3.428000000     4.569000000
C    -5.051000000    -3.414000000     3.502000000
C    -4.678000000    -3.718000000     2.193000000
H    -3.674000000    -3.982000000     1.872000000
C    -6.364000000    -2.920000000     3.819000000
H    -6.630000000    -2.599000000     4.823000000
C    -7.319000000    -2.736000000     2.791000000
H    -8.279000000    -2.297000000     3.050000000
C    -6.964000000    -3.094000000     1.516000000
H    -7.622000000    -2.936000000     0.665000000
C    -5.696000000    -3.562000000     1.216000000
O    -5.409000000    -3.937000000    -0.068000000
C    -5.145000000    -2.978000000    -1.064000000
C    -5.122000000    -3.358000000    -2.347000000
H    -5.371000000    -4.373000000    -2.648000000
C    -4.665000000    -2.494000000    -3.313000000
O    -4.643000000    -2.902000000    -4.617000000
C    -3.465000000    -2.815000000    -5.424000000
C    -2.240000000    -3.050000000    -4.896000000
H    -2.106000000    -3.456000000    -3.897000000
C    -3.592000000    -2.520000000    -6.818000000
H    -4.626000000    -2.510000000    -7.155000000
C    -2.506000000    -2.239000000    -7.577000000
H    -2.730000000    -1.904000000    -8.587000000
C    -1.245000000    -2.378000000    -7.001000000
H    -0.357000000    -2.225000000    -7.608000000
C    -1.134000000    -2.917000000    -5.737000000
O     0.130000000    -3.234000000    -5.244000000
C     1.129000000    -2.272000000    -5.133000000
C     2.481000000    -2.754000000    -5.118000000
H     2.697000000    -3.780000000    -5.403000000
C     3.509000000    -1.844000000    -4.845000000
O     4.829000000    -2.237000000    -4.927000000
C     5.746000000    -1.891000000    -3.949000000
C     5.477000000    -2.023000000    -2.562000000
H     4.502000000    -2.436000000    -2.314000000
C     6.937000000    -1.287000000    -4.373000000
H     7.098000000    -1.251000000    -5.448000000
C     7.901000000    -0.856000000    -3.423000000
H     8.835000000    -0.464000000    -3.817000000
C     7.687000000    -1.035000000    -2.088000000
H     8.500000000    -0.911000000    -1.376000000
C     6.448000000    -1.549000000    -1.635000000
O     6.379000000    -2.048000000    -0.391000000
C     5.781000000    -1.465000000     0.696000000
C     5.793000000    -2.208000000     1.874000000
H     6.409000000    -3.088000000     2.042000000
C     5.012000000    -1.748000000     2.893000000
O     4.951000000    -2.555000000     4.042000000
C     3.972000000    -2.496000000     4.974000000
C     4.359000000    -2.128000000     6.272000000
H     5.349000000    -1.767000000     6.540000000
C     3.386000000    -2.256000000     7.330000000
H     3.728000000    -1.997000000     8.328000000
C     2.073000000    -2.492000000     7.036000000
H     1.351000000    -2.519000000     7.848000000
C     1.666000000    -2.824000000     5.741000000
C     2.623000000    -2.869000000     4.723000000
H     2.482000000    -3.258000000     3.718000000
O     1.998000000    -6.507000000     4.749000000
H     2.601000000    -5.999000000     4.206000000
H     2.178000000    -7.418000000     4.518000000
O    -1.061000000    -8.288000000     0.106000000
H    -0.983000000    -7.341000000    -0.007000000
H    -0.706000000    -8.657000000    -0.703000000
O    -2.353000000    -8.039000000     5.497000000
H    -2.271000000    -7.657000000     6.371000000
H    -1.838000000    -7.462000000     4.933000000
O    -3.064000000    -7.051000000     1.655000000
H    -2.323000000    -6.451000000     1.742000000
H    -2.684000000    -7.849000000     1.288000000
O     1.053000000    -8.469000000    -1.896000000
H     1.077000000    -8.949000000    -2.724000000
H     1.819000000    -8.782000000    -1.415000000
O    -2.743000000    -5.567000000    -2.704000000
H    -3.427000000    -5.072000000    -2.252000000
H    -2.177000000    -5.889000000    -2.003000000
O     0.741000000    -5.851000000    -5.375000000
H     0.518000000    -5.065000000    -5.874000000
H     0.688000000    -5.577000000    -4.460000000
O    -0.513000000    -9.840000000     2.278000000
H    -0.647000000    -9.240000000     1.544000000
H    -0.314000000   -10.681000000     1.866000000
O    -4.361000000    -6.647000000     4.131000000
H    -3.995000000    -7.132000000     4.870000000
H    -3.687000000    -6.697000000     3.453000000
O     0.754000000    -5.879000000    -2.665000000
H     0.888000000    -6.797000000    -2.428000000
H     0.018000000    -5.597000000    -2.122000000
O    -4.943000000    -6.743000000    -0.559000000
H    -5.153000000    -5.841000000    -0.321000000
H    -4.313000000    -7.026000000     0.104000000
O    -0.563000000    -6.229000000     4.375000000
H     0.390000000    -6.139000000     4.404000000
H    -0.818000000    -5.812000000     3.552000000
O     3.686000000    -7.431000000    -0.905000000
H     4.236000000    -7.624000000    -0.146000000
H     3.719000000    -8.228000000    -1.434000000
O    -3.932000000    -6.390000000    -4.746000000
H    -3.466000000    -5.987000000    -4.013000000
H    -3.581000000    -7.279000000    -4.793000000
O     1.694000000    -6.375000000     1.378000000
H     0.768000000    -6.196000000     1.538000000
H     1.710000000    -7.273000000     1.046000000
O     3.297000000    -4.414000000    -1.517000000
H     3.603000000    -5.313000000    -1.633000000
H     2.383000000    -4.433000000    -1.799000000
O     3.213000000    -4.046000000     1.237000000
H     3.308000000    -3.925000000     0.292000000
H     2.768000000    -4.889000000     1.327000000
O     2.032000000    -9.525000000     3.364000000
H     2.378000000   -10.391000000     3.580000000
H     1.099000000    -9.672000000     3.207000000
O     4.448000000    -5.256000000     3.429000000
H     4.761000000    -6.083000000     3.063000000
H     4.134000000    -4.762000000     2.672000000
