201
-1269.02705
C    -0.003000000    -4.475000000    -1.399000000
H    -0.818000000    -4.603000000    -0.690000000
C     1.169000000    -3.888000000    -0.985000000
C     2.252000000    -3.654000000    -1.900000000
H     3.218000000    -3.254000000    -1.602000000
C     1.374000000    -3.614000000     0.539000000
O     0.431000000    -4.389000000     1.324000000
H     1.146000000    -2.538000000     0.561000000
O     2.701000000    -3.914000000     0.947000000
C     3.208000000    -2.813000000     1.644000000
C     4.110000000    -1.965000000     0.996000000
H     4.412000000    -2.225000000    -0.016000000
C     4.363000000    -0.671000000     1.598000000
O     5.043000000     0.214000000     0.848000000
C     3.795000000    -0.332000000     2.848000000
C     4.240000000     1.023000000     3.502000000
H     4.344000000     0.900000000     4.582000000
C     3.231000000     2.017000000     3.087000000
C     2.079000000     2.229000000     3.874000000
H     2.029000000     1.704000000     4.824000000
H     5.247000000     1.277000000     3.166000000
C     3.043000000    -1.281000000     3.522000000
H     2.879000000    -1.092000000     4.580000000
C     2.669000000    -2.473000000     2.941000000
C     1.752000000    -3.468000000     3.723000000
H     1.988000000    -3.291000000     4.775000000
H     1.980000000    -4.527000000     3.589000000
C     0.371000000    -3.193000000     3.455000000
C    -0.332000000    -2.396000000     4.291000000
H    -0.014000000    -1.971000000     5.240000000
C    -0.258000000    -3.669000000     2.253000000
C    -1.551000000    -3.472000000     1.983000000
H    -2.020000000    -4.006000000     1.161000000
C    -2.289000000    -2.667000000     2.913000000
O    -3.547000000    -2.433000000     2.567000000
C    -3.716000000    -1.302000000     1.844000000
C    -4.761000000    -1.469000000     0.773000000
C    -5.427000000    -0.345000000     0.188000000
H    -5.242000000     0.623000000     0.646000000
C    -4.894000000    -2.719000000     0.110000000
H    -4.285000000    -3.535000000     0.489000000
O    -4.167000000    -0.328000000     2.765000000
H    -2.779000000    -0.891000000     1.440000000
C    -1.690000000    -2.066000000     4.045000000
C    -2.385000000    -1.069000000     4.919000000
H    -1.982000000    -1.005000000     5.932000000
H    -3.368000000    -1.507000000     5.108000000
C    -2.432000000     0.306000000     4.265000000
C    -1.414000000     1.219000000     4.557000000
H    -0.798000000     1.017000000     5.429000000
C    -3.272000000     0.569000000     3.179000000
C    -3.196000000     1.797000000     2.564000000
H    -3.921000000     2.081000000     1.806000000
C    -2.265000000     2.768000000     2.966000000
O    -2.058000000     3.858000000     2.147000000
C    -0.963000000     3.770000000     1.228000000
C    -1.497000000     4.198000000    -0.115000000
C    -2.902000000     4.341000000    -0.397000000
H    -3.576000000     4.014000000     0.391000000
C    -0.644000000     4.425000000    -1.186000000
H     0.408000000     4.186000000    -1.054000000
O     0.174000000     4.445000000     1.724000000
H    -0.661000000     2.739000000     0.991000000
C    -1.272000000     2.447000000     3.910000000
C    -0.105000000     3.306000000     4.417000000
H     0.182000000     3.017000000     5.430000000
H    -0.345000000     4.370000000     4.479000000
C     1.080000000     3.116000000     3.469000000
C     1.250000000     3.777000000     2.268000000
C     2.330000000     3.524000000     1.428000000
H     2.481000000     4.130000000     0.538000000
C     3.309000000     2.680000000     1.868000000
O     4.307000000     2.437000000     1.008000000
C     4.214000000     1.189000000     0.223000000
H     3.164000000     0.876000000     0.128000000
C     4.790000000     1.431000000    -1.117000000
C     5.430000000     0.406000000    -1.796000000
H     5.691000000    -0.495000000    -1.247000000
C     4.410000000     2.584000000    -1.824000000
H     3.805000000     3.363000000    -1.367000000
C     4.788000000     2.697000000    -3.162000000
O     4.476000000     3.774000000    -3.933000000
C     5.621000000     1.761000000    -3.754000000
H     6.019000000     1.903000000    -4.755000000
C     5.857000000     0.571000000    -3.089000000
O     6.631000000    -0.479000000    -3.576000000
C     6.237000000    -1.814000000    -3.412000000
C     5.017000000    -2.292000000    -3.944000000
H     4.445000000    -1.585000000    -4.538000000
C     6.992000000    -2.657000000    -2.576000000
H     7.883000000    -2.219000000    -2.133000000
C     6.442000000    -3.893000000    -2.248000000
H     7.021000000    -4.481000000    -1.541000000
C     5.254000000    -4.406000000    -2.832000000
H     4.885000000    -5.396000000    -2.580000000
C     4.525000000    -3.569000000    -3.685000000
O     3.251000000    -3.925000000    -4.112000000
C     2.179000000    -4.125000000    -3.221000000
C     0.924000000    -4.541000000    -3.720000000
H     0.771000000    -4.614000000    -4.794000000
C    -0.109000000    -4.751000000    -2.794000000
O    -1.420000000    -4.856000000    -3.231000000
C    -2.518000000    -5.263000000    -2.509000000
C    -3.636000000    -4.440000000    -2.535000000
H    -3.585000000    -3.385000000    -2.791000000
C    -2.514000000    -6.530000000    -1.987000000
H    -1.682000000    -7.213000000    -2.141000000
C    -3.662000000    -7.012000000    -1.303000000
H    -3.652000000    -7.957000000    -0.767000000
C    -4.746000000    -6.154000000    -1.265000000
H    -5.662000000    -6.391000000    -0.730000000
C    -4.776000000    -4.946000000    -1.898000000
O    -5.843000000    -4.126000000    -1.690000000
C    -5.707000000    -2.887000000    -1.048000000
C    -6.328000000    -1.773000000    -1.569000000
H    -6.945000000    -1.783000000    -2.463000000
C    -6.207000000    -0.518000000    -0.930000000
O    -6.779000000     0.568000000    -1.483000000
C    -6.629000000     1.825000000    -0.988000000
C    -5.623000000     2.635000000    -1.510000000
H    -4.928000000     2.111000000    -2.161000000
C    -7.556000000     2.384000000    -0.065000000
H    -8.303000000     1.754000000     0.412000000
C    -7.463000000     3.738000000     0.276000000
H    -8.124000000     4.227000000     0.987000000
C    -6.587000000     4.563000000    -0.412000000
H    -6.509000000     5.629000000    -0.215000000
C    -5.609000000     3.970000000    -1.241000000
O    -4.661000000     4.721000000    -1.980000000
C    -3.346000000     4.661000000    -1.695000000
C    -2.475000000     4.880000000    -2.717000000
H    -2.809000000     5.085000000    -3.731000000
C    -1.104000000     4.696000000    -2.453000000
O    -0.190000000     4.819000000    -3.500000000
C     1.141000000     5.188000000    -3.386000000
C     1.499000000     6.408000000    -2.833000000
H     0.734000000     7.108000000    -2.507000000
C     2.769000000     6.771000000    -2.708000000
H     3.065000000     7.776000000    -2.420000000
C     3.777000000     5.927000000    -3.150000000
H     4.817000000     6.231000000    -3.073000000
C     3.443000000     4.659000000    -3.634000000
C     2.139000000     4.257000000    -3.767000000
H     1.896000000     3.261000000    -4.129000000
O     2.168000000     4.120000000    -9.693000000
H     1.622000000     4.665000000    -9.125000000
H     3.020000000     4.101000000    -9.257000000
O     0.718000000     4.739000000    -7.560000000
H    -0.156000000     4.624000000    -7.187000000
H     1.192000000     5.251000000    -6.905000000
O    -2.946000000    -1.698000000    -7.436000000
H    -2.353000000    -1.879000000    -8.165000000
H    -2.725000000    -2.357000000    -6.778000000
O    -1.073000000    -1.963000000    -9.443000000
H    -0.962000000    -1.915000000   -10.392000000
H    -0.493000000    -1.283000000    -9.099000000
O     0.769000000     0.013000000    -9.636000000
H     1.661000000    -0.269000000    -9.430000000
H     0.585000000     0.705000000    -9.000000000
O    -2.704000000    -5.570000000    -6.051000000
H    -2.516000000    -4.783000000    -5.540000000
H    -2.246000000    -5.433000000    -6.880000000
O    -6.471000000     0.170000000    -5.686000000
H    -5.797000000     0.697000000    -5.257000000
H    -7.263000000     0.705000000    -5.633000000
O    -3.566000000     0.974000000    -5.093000000
H    -2.710000000     1.383000000    -5.219000000
H    -3.376000000     0.038000000    -5.020000000
O     5.041000000     2.599000000    -8.412000000
H     4.938000000     2.001000000    -9.152000000
H     4.500000000     2.219000000    -7.720000000
O     2.805000000    -1.209000000    -7.801000000
H     3.153000000    -0.397000000    -7.431000000
H     3.426000000    -1.883000000    -7.524000000
O    -4.689000000     3.344000000    -5.181000000
H    -4.402000000     3.570000000    -6.066000000
H    -4.324000000     2.472000000    -5.026000000
O     0.129000000    -1.682000000    -6.678000000
H     0.799000000    -1.861000000    -7.338000000
H     0.406000000    -0.861000000    -6.271000000
O     3.459000000     1.433000000    -6.366000000
H     2.550000000     1.305000000    -6.094000000
H     3.795000000     2.103000000    -5.770000000
O    -1.907000000    -2.959000000    -5.257000000
H    -1.516000000    -3.159000000    -4.407000000
H    -1.204000000    -2.539000000    -5.752000000
O    -1.355000000     4.078000000    -5.864000000
H    -0.997000000     4.508000000    -5.088000000
H    -1.353000000     3.146000000    -5.645000000
O    -2.981000000     1.941000000    -9.860000000
H    -3.575000000     1.465000000    -9.280000000
H    -2.114000000     1.806000000    -9.478000000
O    -4.484000000     0.466000000    -8.130000000
H    -3.905000000    -0.232000000    -7.824000000
H    -5.134000000     0.560000000    -7.434000000
O    -3.381000000     4.635000000    -7.711000000
H    -3.083000000     5.484000000    -8.036000000
H    -2.730000000     4.387000000    -7.054000000
O    -0.581000000     1.846000000    -8.092000000
H     0.079000000     2.538000000    -8.056000000
H    -0.709000000     1.590000000    -7.178000000
