201
-1235.02020
C    -1.112000000    -4.256000000    -1.155000000
H    -1.794000000    -3.894000000    -0.390000000
C     0.238000000    -4.429000000    -0.915000000
C     1.052000000    -4.823000000    -2.018000000
H     2.108000000    -5.021000000    -1.847000000
C     0.807000000    -3.939000000     0.417000000
O    -0.011000000    -4.436000000     1.500000000
H     0.825000000    -2.841000000     0.489000000
O     2.140000000    -4.397000000     0.541000000
C     3.035000000    -3.506000000     1.083000000
C     3.825000000    -2.750000000     0.246000000
H     3.750000000    -3.012000000    -0.807000000
C     4.680000000    -1.746000000     0.710000000
O     5.341000000    -0.872000000    -0.192000000
C     4.515000000    -1.338000000     2.078000000
C     5.115000000    -0.018000000     2.575000000
H     5.332000000    -0.087000000     3.643000000
C     4.279000000     1.225000000     2.251000000
C     3.428000000     1.716000000     3.253000000
H     3.386000000     1.320000000     4.264000000
H     6.038000000     0.105000000     2.004000000
C     3.627000000    -1.976000000     2.956000000
H     3.433000000    -1.517000000     3.922000000
C     2.937000000    -3.065000000     2.435000000
C     1.968000000    -3.826000000     3.379000000
H     2.417000000    -3.775000000     4.373000000
H     1.867000000    -4.884000000     3.127000000
C     0.591000000    -3.158000000     3.353000000
C     0.238000000    -2.245000000     4.354000000
H     0.977000000    -1.995000000     5.111000000
C    -0.397000000    -3.606000000     2.470000000
C    -1.707000000    -3.151000000     2.468000000
H    -2.422000000    -3.571000000     1.764000000
C    -2.028000000    -2.157000000     3.404000000
O    -3.306000000    -1.591000000     3.332000000
C    -3.451000000    -0.270000000     2.655000000
C    -4.673000000    -0.313000000     1.792000000
C    -5.229000000     0.892000000     1.407000000
H    -4.821000000     1.808000000     1.825000000
C    -5.202000000    -1.513000000     1.300000000
H    -4.811000000    -2.464000000     1.651000000
O    -3.457000000     0.727000000     3.711000000
H    -2.583000000    -0.150000000     1.990000000
C    -1.087000000    -1.722000000     4.354000000
C    -1.423000000    -0.654000000     5.352000000
H    -0.890000000    -0.942000000     6.260000000
H    -2.470000000    -0.775000000     5.638000000
C    -1.247000000     0.679000000     4.687000000
C    -0.003000000     1.283000000     4.683000000
H     0.857000000     0.740000000     5.068000000
C    -2.268000000     1.327000000     4.004000000
C    -2.033000000     2.536000000     3.394000000
H    -2.809000000     3.094000000     2.876000000
C    -0.730000000     3.079000000     3.314000000
O    -0.545000000     4.168000000     2.515000000
C     0.139000000     4.011000000     1.287000000
C    -0.530000000     4.797000000     0.141000000
C    -1.916000000     4.842000000     0.046000000
H    -2.519000000     4.373000000     0.820000000
C     0.230000000     5.152000000    -0.968000000
H     1.293000000     4.925000000    -0.970000000
O     1.590000000     4.388000000     1.493000000
H     0.081000000     2.953000000     0.995000000
C     0.273000000     2.515000000     4.036000000
C     1.595000000     3.204000000     4.103000000
H     2.146000000     3.086000000     5.038000000
H     1.396000000     4.277000000     4.106000000
C     2.479000000     2.728000000     2.922000000
C     2.547000000     3.446000000     1.749000000
C     3.450000000     3.003000000     0.791000000
H     3.591000000     3.488000000    -0.172000000
C     4.296000000     1.886000000     0.980000000
O     4.960000000     1.401000000    -0.077000000
C     4.399000000     0.116000000    -0.630000000
H     3.390000000    -0.061000000    -0.229000000
C     4.330000000     0.228000000    -2.185000000
C     4.721000000    -0.866000000    -2.952000000
H     5.124000000    -1.725000000    -2.422000000
C     3.894000000     1.363000000    -2.857000000
H     3.572000000     2.172000000    -2.207000000
C     3.580000000     1.358000000    -4.224000000
O     3.012000000     2.478000000    -4.890000000
C     3.906000000     0.218000000    -4.927000000
H     3.745000000     0.182000000    -6.001000000
C     4.539000000    -0.896000000    -4.335000000
O     4.665000000    -2.023000000    -5.119000000
C     4.311000000    -3.248000000    -4.818000000
C     2.952000000    -3.665000000    -4.879000000
H     2.132000000    -3.023000000    -5.188000000
C     5.385000000    -4.100000000    -4.497000000
H     6.412000000    -3.757000000    -4.399000000
C     5.013000000    -5.318000000    -4.048000000
H     5.796000000    -5.962000000    -3.655000000
C     3.697000000    -5.779000000    -4.064000000
H     3.434000000    -6.792000000    -3.771000000
C     2.695000000    -4.969000000    -4.478000000
O     1.348000000    -5.417000000    -4.384000000
C     0.558000000    -5.076000000    -3.311000000
C    -0.817000000    -4.946000000    -3.518000000
H    -1.403000000    -5.103000000    -4.420000000
C    -1.638000000    -4.561000000    -2.444000000
O    -2.959000000    -4.338000000    -2.791000000
C    -4.021000000    -4.484000000    -1.875000000
C    -4.829000000    -3.431000000    -1.356000000
H    -4.755000000    -2.380000000    -1.624000000
C    -4.370000000    -5.790000000    -1.588000000
H    -3.792000000    -6.638000000    -1.945000000
C    -5.491000000    -5.978000000    -0.714000000
H    -5.716000000    -7.031000000    -0.568000000
C    -6.316000000    -4.949000000    -0.236000000
H    -7.211000000    -5.178000000     0.337000000
C    -5.903000000    -3.649000000    -0.532000000
O    -6.735000000    -2.599000000    -0.201000000
C    -6.230000000    -1.451000000     0.359000000
C    -6.730000000    -0.202000000    -0.003000000
H    -7.555000000    -0.191000000    -0.711000000
C    -6.238000000     0.993000000     0.415000000
O    -6.746000000     2.194000000     0.131000000
C    -6.258000000     3.432000000     0.502000000
C    -5.328000000     3.970000000    -0.348000000
H    -5.087000000     3.457000000    -1.276000000
C    -6.610000000     4.002000000     1.716000000
H    -7.416000000     3.629000000     2.343000000
C    -6.111000000     5.308000000     2.000000000
H    -6.230000000     5.777000000     2.973000000
C    -5.173000000     5.895000000     1.133000000
H    -4.773000000     6.851000000     1.462000000
C    -4.753000000     5.238000000    -0.072000000
O    -3.850000000     5.783000000    -1.021000000
C    -2.527000000     5.599000000    -0.966000000
C    -1.736000000     6.151000000    -1.977000000
H    -2.198000000     6.679000000    -2.807000000
C    -0.365000000     5.784000000    -2.053000000
O     0.298000000     6.034000000    -3.193000000
C     1.505000000     5.532000000    -3.534000000
C     2.586000000     6.341000000    -3.616000000
H     2.548000000     7.398000000    -3.364000000
C     3.858000000     5.982000000    -3.978000000
H     4.689000000     6.681000000    -3.925000000
C     3.963000000     4.667000000    -4.393000000
H     4.920000000     4.242000000    -4.687000000
C     2.892000000     3.756000000    -4.397000000
C     1.683000000     4.175000000    -3.909000000
H     0.882000000     3.445000000    -3.822000000
O     1.903000000     2.021000000    -8.306000000
H     2.001000000     1.424000000    -9.048000000
H     1.169000000     1.663000000    -7.806000000
O    -3.797000000    -2.254000000    -4.800000000
H    -3.304000000    -1.443000000    -4.924000000
H    -3.249000000    -2.781000000    -4.219000000
O    -6.610000000     2.678000000    -7.114000000
H    -5.748000000     2.280000000    -7.235000000
H    -6.572000000     3.070000000    -6.241000000
O    -4.407000000     4.552000000    -4.625000000
H    -4.804000000     5.379000000    -4.350000000
H    -4.242000000     4.666000000    -5.561000000
O    -4.484000000     1.866000000    -3.612000000
H    -3.902000000     1.159000000    -3.892000000
H    -3.911000000     2.627000000    -3.523000000
O    -6.789000000    -0.833000000    -5.267000000
H    -6.673000000    -0.666000000    -6.203000000
H    -5.917000000    -1.076000000    -4.957000000
O    -5.961000000    -0.302000000    -8.000000000
H    -6.389000000     0.425000000    -8.453000000
H    -5.690000000    -0.894000000    -8.701000000
O    -1.664000000    -5.577000000    -6.782000000
H    -2.111000000    -5.358000000    -7.600000000
H    -0.751000000    -5.332000000    -6.935000000
O     0.163000000    -2.038000000    -7.288000000
H    -0.297000000    -2.870000000    -7.177000000
H    -0.170000000    -1.485000000    -6.582000000
O    -5.404000000    -4.271000000    -6.157000000
H    -5.414000000    -5.185000000    -5.872000000
H    -4.641000000    -3.893000000    -5.720000000
O    -0.567000000     0.889000000    -7.410000000
H    -0.651000000     0.238000000    -8.106000000
H    -0.858000000     0.434000000    -6.620000000
O     2.810000000    -1.844000000    -8.764000000
H     2.193000000    -1.644000000    -8.061000000
H     2.273000000    -2.240000000    -9.450000000
O    -1.603000000     3.012000000    -5.525000000
H    -2.102000000     3.699000000    -5.082000000
H    -2.037000000     2.198000000    -5.269000000
O     0.017000000     5.430000000    -6.673000000
H    -0.358000000     4.672000000    -6.224000000
H     0.693000000     5.061000000    -7.241000000
O    -3.911000000     1.057000000    -6.694000000
H    -3.469000000     0.848000000    -5.871000000
H    -4.431000000     0.278000000    -6.892000000
O    -7.178000000     1.212000000    -3.294000000
H    -6.240000000     1.370000000    -3.397000000
H    -7.322000000     0.356000000    -3.699000000
O    -4.090000000     1.427000000    -9.507000000
H    -3.974000000     1.253000000    -8.573000000
H    -4.160000000     0.560000000    -9.907000000
O    -1.694000000     3.033000000    -8.967000000
H    -1.214000000     2.518000000    -8.319000000
H    -2.281000000     2.403000000    -9.386000000
O     0.758000000    -4.787000000    -7.770000000
H     1.430000000    -5.257000000    -8.265000000
H     1.015000000    -3.867000000    -7.832000000
