201
-1233.88753
C    -1.826000000    -4.917000000    -0.571000000
H    -2.648000000    -4.741000000     0.118000000
C    -0.490000000    -4.638000000    -0.289000000
C     0.495000000    -4.988000000    -1.174000000
H     1.524000000    -4.775000000    -0.893000000
C    -0.116000000    -3.955000000     1.022000000
O    -1.070000000    -4.303000000     2.032000000
H    -0.116000000    -2.864000000     0.883000000
O     1.203000000    -4.429000000     1.442000000
C     2.095000000    -3.641000000     2.061000000
C     3.112000000    -3.108000000     1.242000000
H     3.255000000    -3.513000000     0.243000000
C     3.829000000    -2.031000000     1.673000000
O     4.598000000    -1.355000000     0.718000000
C     3.613000000    -1.422000000     2.924000000
C     4.429000000    -0.216000000     3.381000000
H     4.540000000    -0.249000000     4.467000000
C     3.754000000     1.110000000     2.891000000
C     2.903000000     1.766000000     3.757000000
H     2.444000000     1.341000000     4.646000000
H     5.382000000    -0.403000000     2.881000000
C     2.596000000    -1.962000000     3.725000000
H     2.323000000    -1.536000000     4.687000000
C     1.785000000    -3.061000000     3.297000000
C     0.659000000    -3.499000000     4.251000000
H     1.039000000    -3.281000000     5.251000000
H     0.679000000    -4.591000000     4.250000000
C    -0.689000000    -2.847000000     3.909000000
C    -1.108000000    -1.702000000     4.668000000
H    -0.337000000    -1.262000000     5.295000000
C    -1.559000000    -3.357000000     2.908000000
C    -2.732000000    -2.689000000     2.674000000
H    -3.331000000    -3.086000000     1.859000000
C    -3.074000000    -1.582000000     3.352000000
O    -4.202000000    -0.829000000     2.885000000
C    -3.906000000     0.183000000     1.904000000
C    -4.750000000     0.120000000     0.539000000
C    -4.791000000     1.253000000    -0.287000000
H    -4.295000000     2.124000000     0.135000000
C    -5.193000000    -1.112000000     0.043000000
H    -5.099000000    -1.969000000     0.705000000
O    -3.862000000     1.527000000     2.522000000
H    -2.880000000    -0.002000000     1.554000000
C    -2.292000000    -1.044000000     4.348000000
C    -2.540000000     0.371000000     4.875000000
H    -1.964000000     0.341000000     5.802000000
H    -3.616000000     0.518000000     4.988000000
C    -1.971000000     1.484000000     3.996000000
C    -0.739000000     1.943000000     4.310000000
H    -0.298000000     1.567000000     5.229000000
C    -2.640000000     2.035000000     2.954000000
C    -2.141000000     3.051000000     2.155000000
H    -2.737000000     3.278000000     1.275000000
C    -0.918000000     3.616000000     2.542000000
O    -0.286000000     4.548000000     1.757000000
C     0.682000000     4.107000000     0.867000000
C     0.416000000     4.788000000    -0.417000000
C    -0.884000000     4.845000000    -0.942000000
H    -1.754000000     4.436000000    -0.435000000
C     1.530000000     5.169000000    -1.172000000
H     2.551000000     4.979000000    -0.850000000
O     1.976000000     4.435000000     1.429000000
H     0.578000000     3.033000000     0.653000000
C    -0.212000000     3.053000000     3.647000000
C     1.174000000     3.633000000     4.075000000
H     1.293000000     3.564000000     5.158000000
H     1.267000000     4.717000000     3.987000000
C     2.301000000     2.947000000     3.320000000
C     2.640000000     3.491000000     2.062000000
C     3.538000000     2.855000000     1.211000000
H     3.702000000     3.305000000     0.235000000
C     4.088000000     1.648000000     1.585000000
O     4.897000000     0.954000000     0.638000000
C     4.261000000    -0.161000000    -0.002000000
H     3.186000000     0.010000000     0.159000000
C     4.384000000    -0.142000000    -1.484000000
C     4.484000000    -1.358000000    -2.193000000
H     4.516000000    -2.320000000    -1.689000000
C     4.247000000     1.055000000    -2.137000000
H     4.229000000     1.973000000    -1.555000000
C     4.349000000     1.052000000    -3.511000000
O     4.457000000     2.266000000    -4.220000000
C     4.501000000    -0.127000000    -4.198000000
H     4.707000000    -0.053000000    -5.262000000
C     4.507000000    -1.346000000    -3.608000000
O     4.492000000    -2.532000000    -4.365000000
C     4.071000000    -3.750000000    -3.841000000
C     2.786000000    -4.149000000    -3.778000000
H     2.107000000    -3.370000000    -4.116000000
C     5.031000000    -4.637000000    -3.386000000
H     6.044000000    -4.250000000    -3.302000000
C     4.659000000    -5.914000000    -2.857000000
H     5.490000000    -6.497000000    -2.469000000
C     3.317000000    -6.359000000    -2.882000000
H     2.970000000    -7.369000000    -2.678000000
C     2.402000000    -5.451000000    -3.279000000
O     1.131000000    -5.804000000    -3.388000000
C     0.191000000    -5.530000000    -2.403000000
C    -1.143000000    -5.761000000    -2.681000000
H    -1.490000000    -6.195000000    -3.616000000
C    -2.178000000    -5.527000000    -1.788000000
O    -3.462000000    -5.941000000    -2.011000000
C    -4.555000000    -5.308000000    -1.381000000
C    -4.864000000    -3.973000000    -1.648000000
H    -4.146000000    -3.256000000    -2.037000000
C    -5.487000000    -6.140000000    -0.839000000
H    -5.271000000    -7.204000000    -0.781000000
C    -6.737000000    -5.713000000    -0.541000000
H    -7.427000000    -6.387000000    -0.040000000
C    -7.127000000    -4.388000000    -0.826000000
H    -8.129000000    -4.074000000    -0.545000000
C    -6.192000000    -3.513000000    -1.344000000
O    -6.541000000    -2.217000000    -1.574000000
C    -5.903000000    -1.109000000    -1.095000000
C    -6.112000000     0.044000000    -1.873000000
H    -6.605000000     0.011000000    -2.842000000
C    -5.579000000     1.257000000    -1.419000000
O    -5.794000000     2.359000000    -2.185000000
C    -5.205000000     3.596000000    -1.863000000
C    -4.139000000     4.077000000    -2.639000000
H    -3.591000000     3.523000000    -3.396000000
C    -5.676000000     4.365000000    -0.774000000
H    -6.512000000     3.981000000    -0.194000000
C    -5.068000000     5.534000000    -0.401000000
H    -5.363000000     6.191000000     0.413000000
C    -3.896000000     5.960000000    -1.096000000
H    -3.357000000     6.893000000    -0.953000000
C    -3.471000000     5.174000000    -2.177000000
O    -2.290000000     5.569000000    -2.795000000
C    -1.063000000     5.518000000    -2.160000000
C    -0.018000000     6.148000000    -2.771000000
H    -0.162000000     6.857000000    -3.583000000
C     1.312000000     5.925000000    -2.387000000
O     2.400000000     6.514000000    -2.935000000
C     3.565000000     5.731000000    -3.108000000
C     4.801000000     6.074000000    -2.515000000
H     4.895000000     7.045000000    -2.036000000
C     5.865000000     5.201000000    -2.475000000
H     6.815000000     5.530000000    -2.063000000
C     5.646000000     3.931000000    -3.031000000
H     6.467000000     3.218000000    -3.043000000
C     4.516000000     3.565000000    -3.658000000
C     3.436000000     4.404000000    -3.646000000
H     2.472000000     4.115000000    -4.059000000
O     1.780000000    -1.614000000    -7.842000000
H     1.438000000    -1.257000000    -8.662000000
H     2.640000000    -1.205000000    -7.743000000
O    -4.439000000    -4.672000000    -4.556000000
H    -3.682000000    -5.092000000    -4.149000000
H    -4.124000000    -4.394000000    -5.417000000
O    -5.140000000    -1.856000000    -4.743000000
H    -4.989000000    -2.764000000    -4.482000000
H    -4.281000000    -1.440000000    -4.673000000
O    -7.302000000    -0.516000000    -6.012000000
H    -6.667000000    -1.086000000    -5.579000000
H    -7.619000000     0.061000000    -5.317000000
O     2.947000000     3.036000000    -6.728000000
H     2.328000000     2.950000000    -6.004000000
H     3.491000000     2.251000000    -6.673000000
O    -6.862000000    -5.982000000    -3.832000000
H    -7.422000000    -5.261000000    -4.118000000
H    -5.977000000    -5.617000000    -3.843000000
O     0.726000000     2.722000000    -5.122000000
H     0.744000000     2.316000000    -4.256000000
H     0.481000000     2.011000000    -5.715000000
O    -4.196000000    -1.938000000   -10.303000000
H    -3.386000000    -1.491000000   -10.550000000
H    -4.370000000    -1.642000000    -9.409000000
O     0.028000000    -3.499000000    -6.804000000
H     0.807000000    -2.991000000    -7.033000000
H    -0.289000000    -3.097000000    -5.995000000
O    -1.558000000     4.317000000    -6.492000000
H    -2.282000000     3.697000000    -6.413000000
H    -0.792000000     3.833000000    -6.183000000
O     0.422000000     0.335000000    -5.987000000
H     0.843000000    -0.284000000    -6.582000000
H    -0.043000000    -0.215000000    -5.357000000
O    -0.286000000    -4.719000000    -9.482000000
H    -0.529000000    -4.030000000   -10.101000000
H    -0.141000000    -4.257000000    -8.656000000
O    -2.149000000     1.348000000    -9.320000000
H    -3.026000000     1.420000000    -9.695000000
H    -2.282000000     0.901000000    -8.484000000
O     1.108000000     1.336000000    -2.540000000
H     1.950000000     1.234000000    -2.097000000
H     0.557000000     0.646000000    -2.170000000
O    -3.432000000     2.505000000    -6.160000000
H    -4.155000000     2.360000000    -5.549000000
H    -2.992000000     1.656000000    -6.215000000
O    -2.269000000     0.158000000    -6.685000000
H    -1.397000000     0.393000000    -6.368000000
H    -2.548000000    -0.556000000    -6.112000000
O    -5.018000000     1.027000000    -8.770000000
H    -5.965000000     1.011000000    -8.637000000
H    -4.673000000     0.420000000    -8.116000000
O    -2.976000000    -4.036000000    -6.990000000
H    -2.199000000    -3.795000000    -6.486000000
H    -2.630000000    -4.409000000    -7.800000000
O    -4.777000000    -1.579000000    -7.455000000
H    -5.536000000    -1.611000000    -6.872000000
H    -4.159000000    -2.205000000    -7.078000000
