201
-1239.16637
C    -3.654000000    -3.698000000    -0.197000000
H    -4.188000000    -3.048000000     0.492000000
C    -2.428000000    -4.222000000     0.085000000
C    -1.748000000    -5.070000000    -0.819000000
H    -0.772000000    -5.441000000    -0.518000000
C    -1.688000000    -3.728000000     1.378000000
O    -2.638000000    -3.465000000     2.345000000
H    -1.158000000    -2.789000000     1.157000000
O    -0.731000000    -4.803000000     1.834000000
C     0.497000000    -4.265000000     2.155000000
C     1.386000000    -4.145000000     1.076000000
H     1.189000000    -4.553000000     0.088000000
C     2.599000000    -3.500000000     1.294000000
O     3.388000000    -3.397000000     0.211000000
C     2.979000000    -2.991000000     2.544000000
C     4.321000000    -2.301000000     2.693000000
H     4.598000000    -2.351000000     3.748000000
C     4.291000000    -0.846000000     2.286000000
C     3.978000000     0.141000000     3.253000000
H     3.798000000    -0.180000000     4.276000000
H     5.132000000    -2.810000000     2.167000000
C     1.997000000    -3.047000000     3.572000000
H     2.238000000    -2.703000000     4.575000000
C     0.749000000    -3.686000000     3.344000000
C    -0.329000000    -3.624000000     4.382000000
H     0.126000000    -3.584000000     5.374000000
H    -0.831000000    -4.593000000     4.414000000
C    -1.244000000    -2.444000000     4.165000000
C    -0.862000000    -1.299000000     4.880000000
H    -0.035000000    -1.262000000     5.586000000
C    -2.269000000    -2.391000000     3.186000000
C    -2.991000000    -1.194000000     2.977000000
H    -3.761000000    -1.125000000     2.213000000
C    -2.607000000    -0.029000000     3.700000000
O    -3.357000000     1.034000000     3.444000000
C    -2.571000000     1.975000000     2.623000000
C    -3.409000000     2.450000000     1.436000000
C    -3.646000000     3.794000000     1.122000000
H    -3.284000000     4.505000000     1.860000000
C    -3.855000000     1.479000000     0.478000000
H    -3.728000000     0.404000000     0.575000000
O    -2.211000000     2.990000000     3.510000000
H    -1.642000000     1.547000000     2.221000000
C    -1.621000000    -0.141000000     4.710000000
C    -1.208000000     1.086000000     5.429000000
H    -0.552000000     0.744000000     6.232000000
H    -2.072000000     1.606000000     5.849000000
C    -0.331000000     2.084000000     4.619000000
C     1.058000000     2.030000000     4.674000000
H     1.596000000     1.243000000     5.197000000
C    -0.879000000     3.044000000     3.818000000
C    -0.097000000     3.909000000     3.038000000
H    -0.592000000     4.581000000     2.341000000
C     1.284000000     3.810000000     3.012000000
O     1.910000000     4.301000000     1.962000000
C     2.177000000     3.414000000     0.876000000
C     1.863000000     4.091000000    -0.509000000
C     0.933000000     5.175000000    -0.579000000
H     0.232000000     5.356000000     0.232000000
C     2.557000000     3.755000000    -1.676000000
H     3.147000000     2.842000000    -1.661000000
O     3.555000000     3.018000000     0.967000000
H     1.472000000     2.596000000     1.086000000
C     1.851000000     2.840000000     3.805000000
C     3.404000000     2.569000000     3.755000000
H     3.732000000     2.281000000     4.756000000
H     3.978000000     3.461000000     3.497000000
C     3.820000000     1.489000000     2.835000000
C     3.925000000     1.799000000     1.492000000
C     4.261000000     0.839000000     0.566000000
H     4.278000000     1.072000000    -0.495000000
C     4.469000000    -0.455000000     0.914000000
O     4.614000000    -1.353000000    -0.199000000
C     3.478000000    -2.162000000    -0.541000000
H     2.616000000    -1.508000000    -0.347000000
C     3.368000000    -2.284000000    -2.026000000
C     2.889000000    -3.472000000    -2.531000000
H     2.702000000    -4.283000000    -1.831000000
C     3.476000000    -1.251000000    -2.957000000
H     3.757000000    -0.279000000    -2.560000000
C     3.384000000    -1.490000000    -4.343000000
O     3.549000000    -0.413000000    -5.269000000
C     3.125000000    -2.764000000    -4.834000000
H     3.026000000    -3.035000000    -5.882000000
C     2.774000000    -3.754000000    -3.902000000
O     2.590000000    -5.055000000    -4.414000000
C     1.707000000    -5.934000000    -3.795000000
C     0.400000000    -5.609000000    -3.405000000
H    -0.004000000    -4.605000000    -3.500000000
C     2.122000000    -7.203000000    -3.598000000
H     3.158000000    -7.433000000    -3.832000000
C     1.319000000    -8.292000000    -3.186000000
H     1.689000000    -9.314000000    -3.158000000
C    -0.034000000    -7.990000000    -2.965000000
H    -0.675000000    -8.844000000    -2.763000000
C    -0.449000000    -6.665000000    -2.956000000
O    -1.791000000    -6.454000000    -2.852000000
C    -2.403000000    -5.445000000    -2.071000000
C    -3.667000000    -4.909000000    -2.340000000
H    -4.244000000    -5.244000000    -3.199000000
C    -4.240000000    -3.972000000    -1.467000000
O    -5.482000000    -3.532000000    -1.780000000
C    -5.862000000    -2.355000000    -1.241000000
C    -5.221000000    -1.165000000    -1.687000000
H    -4.319000000    -1.274000000    -2.284000000
C    -7.121000000    -2.300000000    -0.591000000
H    -7.674000000    -3.222000000    -0.433000000
C    -7.632000000    -1.030000000    -0.234000000
H    -8.492000000    -0.966000000     0.428000000
C    -6.905000000     0.109000000    -0.622000000
H    -7.208000000     1.062000000    -0.195000000
C    -5.720000000     0.032000000    -1.343000000
O    -4.963000000     1.047000000    -1.653000000
C    -4.527000000     1.955000000    -0.689000000
C    -4.720000000     3.312000000    -0.963000000
H    -5.312000000     3.664000000    -1.803000000
C    -4.247000000     4.258000000    -0.070000000
O    -4.407000000     5.596000000    -0.287000000
C    -3.442000000     6.530000000    -0.598000000
C    -2.126000000     6.227000000    -1.045000000
H    -1.918000000     5.176000000    -1.227000000
C    -3.849000000     7.878000000    -0.465000000
H    -4.785000000     8.306000000    -0.116000000
C    -2.909000000     8.858000000    -0.717000000
H    -3.344000000     9.853000000    -0.763000000
C    -1.611000000     8.522000000    -1.126000000
H    -0.975000000     9.294000000    -1.553000000
C    -1.229000000     7.215000000    -1.347000000
O    -0.089000000     6.911000000    -1.975000000
C     0.770000000     5.806000000    -1.812000000
C     1.492000000     5.448000000    -2.927000000
H     1.244000000     5.839000000    -3.911000000
C     2.405000000     4.351000000    -2.885000000
O     2.962000000     4.132000000    -4.121000000
C     3.852000000     3.081000000    -4.262000000
C     5.238000000     3.161000000    -3.956000000
H     5.695000000     4.011000000    -3.454000000
C     5.961000000     1.991000000    -3.994000000
H     7.011000000     1.980000000    -3.712000000
C     5.442000000     0.761000000    -4.505000000
H     6.156000000    -0.057000000    -4.561000000
C     4.133000000     0.742000000    -4.934000000
C     3.347000000     1.824000000    -4.722000000
H     2.302000000     1.740000000    -5.012000000
O    -0.634000000     2.878000000    -6.212000000
H    -1.082000000     2.387000000    -5.523000000
H     0.173000000     2.387000000    -6.368000000
O    -4.689000000     0.818000000    -4.591000000
H    -3.765000000     1.035000000    -4.717000000
H    -4.867000000     1.048000000    -3.680000000
O    -4.413000000    -3.177000000    -5.394000000
H    -4.897000000    -2.431000000    -5.749000000
H    -3.902000000    -3.505000000    -6.134000000
O    -7.582000000    -1.741000000    -4.012000000
H    -6.805000000    -1.815000000    -3.458000000
H    -7.883000000    -2.643000000    -4.124000000
O     2.501000000     0.497000000    -8.467000000
H     3.016000000     1.214000000    -8.097000000
H     1.677000000     0.517000000    -7.981000000
O     0.201000000    -4.407000000    -6.937000000
H    -0.625000000    -4.197000000    -6.500000000
H     0.623000000    -3.558000000    -7.070000000
O    -4.888000000     1.356000000    -8.327000000
H    -4.369000000     0.946000000    -9.019000000
H    -4.383000000     2.128000000    -8.073000000
O     0.687000000     6.249000000    -6.349000000
H     0.219000000     5.415000000    -6.308000000
H     0.067000000     6.889000000    -6.000000000
O    -2.016000000    -0.641000000    -8.131000000
H    -2.439000000    -0.413000000    -7.304000000
H    -2.060000000    -1.597000000    -8.167000000
O     0.232000000     0.202000000    -7.115000000
H    -0.467000000    -0.016000000    -7.732000000
H    -0.092000000    -0.105000000    -6.268000000
O    -3.371000000     3.436000000    -7.679000000
H    -2.813000000     3.268000000    -6.920000000
H    -3.249000000     4.367000000    -7.865000000
O    -0.639000000     2.403000000    -9.099000000
H    -1.075000000     1.994000000    -8.351000000
H    -0.616000000     3.335000000    -8.881000000
O    -3.709000000     3.770000000    -3.686000000
H    -3.312000000     4.552000000    -4.070000000
H    -3.060000000     3.080000000    -3.823000000
O    -6.311000000     3.781000000    -5.209000000
H    -5.727000000     3.397000000    -4.555000000
H    -5.797000000     3.785000000    -6.016000000
O    -1.741000000     0.461000000   -11.263000000
H    -0.794000000     0.484000000   -11.399000000
H    -1.846000000     0.184000000   -10.353000000
O    -3.295000000     5.949000000    -5.514000000
H    -2.541000000     6.525000000    -5.389000000
H    -3.939000000     6.493000000    -5.967000000
O    -4.627000000    -0.874000000    -6.789000000
H    -4.671000000    -0.240000000    -6.073000000
H    -4.885000000    -0.377000000    -7.566000000
O    -1.516000000    -2.780000000    -5.105000000
H    -1.526000000    -1.823000000    -5.116000000
H    -2.408000000    -3.026000000    -4.858000000
O    -8.056000000     0.935000000    -4.275000000
H    -7.907000000     0.019000000    -4.508000000
H    -7.674000000     1.432000000    -4.998000000
