201
-1231.18141
C    -3.504000000    -3.842000000    -2.695000000
H    -4.463000000    -3.498000000    -2.314000000
C    -2.423000000    -4.084000000    -1.783000000
C    -1.156000000    -4.217000000    -2.357000000
H    -0.308000000    -4.349000000    -1.691000000
C    -2.631000000    -3.728000000    -0.322000000
O    -3.987000000    -3.436000000     0.020000000
H    -2.065000000    -2.788000000    -0.246000000
O    -2.115000000    -4.725000000     0.601000000
C    -1.319000000    -4.273000000     1.671000000
C     0.027000000    -4.405000000     1.661000000
H     0.519000000    -4.950000000     0.860000000
C     0.863000000    -3.910000000     2.666000000
O     2.226000000    -3.966000000     2.391000000
C     0.291000000    -3.230000000     3.760000000
C     1.166000000    -2.612000000     4.848000000
H     0.745000000    -2.797000000     5.838000000
C     1.463000000    -1.155000000     4.526000000
C     0.680000000    -0.148000000     5.049000000
H    -0.212000000    -0.355000000     5.635000000
H     2.067000000    -3.228000000     4.878000000
C    -1.084000000    -3.219000000     3.839000000
H    -1.595000000    -2.666000000     4.623000000
C    -1.939000000    -3.692000000     2.801000000
C    -3.455000000    -3.516000000     2.937000000
H    -3.687000000    -3.634000000     3.997000000
H    -3.904000000    -4.361000000     2.412000000
C    -3.906000000    -2.235000000     2.166000000
C    -3.992000000    -1.031000000     2.877000000
H    -3.904000000    -0.924000000     3.955000000
C    -4.212000000    -2.237000000     0.800000000
C    -4.486000000    -1.012000000     0.158000000
H    -4.575000000    -1.052000000    -0.924000000
C    -4.620000000     0.160000000     0.878000000
O    -4.770000000     1.308000000     0.194000000
C    -3.688000000     2.168000000    -0.022000000
C    -3.448000000     2.657000000    -1.482000000
C    -2.933000000     3.902000000    -1.750000000
H    -2.794000000     4.577000000    -0.910000000
C    -3.743000000     1.850000000    -2.550000000
H    -4.230000000     0.883000000    -2.446000000
O    -3.640000000     3.276000000     0.912000000
H    -2.804000000     1.529000000     0.126000000
C    -4.425000000     0.145000000     2.225000000
C    -4.488000000     1.459000000     3.032000000
H    -4.745000000     1.294000000     4.080000000
H    -5.318000000     2.073000000     2.676000000
C    -3.101000000     2.143000000     3.006000000
C    -2.144000000     1.906000000     4.010000000
H    -2.131000000     1.008000000     4.623000000
C    -2.812000000     3.142000000     2.011000000
C    -1.568000000     3.771000000     2.022000000
H    -1.323000000     4.394000000     1.166000000
C    -0.644000000     3.500000000     3.024000000
O     0.581000000     4.044000000     2.832000000
C     1.589000000     3.159000000     2.270000000
C     2.545000000     3.912000000     1.302000000
C     2.050000000     4.919000000     0.454000000
H     1.013000000     5.168000000     0.661000000
C     3.912000000     3.642000000     1.153000000
H     4.347000000     2.812000000     1.704000000
O     2.384000000     2.684000000     3.324000000
H     0.996000000     2.378000000     1.772000000
C    -0.919000000     2.617000000     4.061000000
C     0.094000000     2.284000000     5.122000000
H    -0.497000000     2.075000000     6.016000000
H     0.692000000     3.165000000     5.365000000
C     1.008000000     1.171000000     4.669000000
C     2.103000000     1.460000000     3.819000000
C     2.939000000     0.446000000     3.339000000
H     3.810000000     0.636000000     2.717000000
C     2.621000000    -0.877000000     3.684000000
O     3.354000000    -1.915000000     3.020000000
C     2.787000000    -2.730000000     1.999000000
H     2.007000000    -2.174000000     1.459000000
C     3.857000000    -2.800000000     0.897000000
C     3.790000000    -3.897000000    -0.014000000
H     3.099000000    -4.711000000     0.189000000
C     4.628000000    -1.741000000     0.520000000
H     4.469000000    -0.798000000     1.036000000
C     5.564000000    -1.817000000    -0.554000000
O     6.360000000    -0.724000000    -0.863000000
C     5.605000000    -2.891000000    -1.342000000
H     6.320000000    -2.939000000    -2.159000000
C     4.625000000    -3.904000000    -1.118000000
O     4.712000000    -4.956000000    -2.013000000
C     3.618000000    -5.471000000    -2.708000000
C     2.456000000    -4.653000000    -3.007000000
H     2.502000000    -3.637000000    -2.624000000
C     3.708000000    -6.717000000    -3.260000000
H     4.644000000    -7.227000000    -3.046000000
C     2.701000000    -7.244000000    -4.100000000
H     2.738000000    -8.242000000    -4.527000000
C     1.482000000    -6.508000000    -4.279000000
H     0.618000000    -6.870000000    -4.831000000
C     1.371000000    -5.244000000    -3.712000000
O     0.317000000    -4.435000000    -4.121000000
C    -1.007000000    -4.366000000    -3.676000000
C    -2.060000000    -4.168000000    -4.537000000
H    -1.883000000    -4.201000000    -5.609000000
C    -3.314000000    -3.860000000    -4.056000000
O    -4.323000000    -3.397000000    -4.870000000
C    -4.708000000    -2.146000000    -4.802000000
C    -3.853000000    -1.055000000    -4.901000000
H    -2.783000000    -1.250000000    -4.904000000
C    -6.097000000    -1.944000000    -4.714000000
H    -6.737000000    -2.823000000    -4.685000000
C    -6.596000000    -0.641000000    -4.844000000
H    -7.671000000    -0.517000000    -4.752000000
C    -5.750000000     0.457000000    -4.940000000
H    -6.296000000     1.388000000    -5.064000000
C    -4.399000000     0.240000000    -4.878000000
O    -3.587000000     1.403000000    -4.980000000
C    -3.494000000     2.287000000    -3.911000000
C    -2.817000000     3.477000000    -4.149000000
H    -2.486000000     3.695000000    -5.161000000
C    -2.645000000     4.361000000    -3.070000000
O    -2.043000000     5.581000000    -3.301000000
C    -1.313000000     6.306000000    -2.400000000
C     0.062000000     6.044000000    -2.255000000
H     0.533000000     5.255000000    -2.836000000
C    -1.845000000     7.321000000    -1.657000000
H    -2.924000000     7.457000000    -1.685000000
C    -1.081000000     8.060000000    -0.751000000
H    -1.516000000     8.950000000    -0.303000000
C     0.312000000     7.855000000    -0.606000000
H     0.983000000     8.452000000     0.007000000
C     0.863000000     6.802000000    -1.384000000
O     2.228000000     6.626000000    -1.247000000
C     2.836000000     5.647000000    -0.453000000
C     4.238000000     5.396000000    -0.488000000
H     4.922000000     5.901000000    -1.165000000
C     4.736000000     4.332000000     0.251000000
O     6.042000000     3.834000000    -0.010000000
C     6.538000000     2.703000000     0.449000000
C     7.080000000     2.494000000     1.729000000
H     7.165000000     3.255000000     2.501000000
C     7.626000000     1.267000000     1.983000000
H     8.123000000     1.107000000     2.937000000
C     7.491000000     0.222000000     1.137000000
H     7.788000000    -0.797000000     1.371000000
C     6.739000000     0.288000000    -0.019000000
C     6.422000000     1.557000000    -0.389000000
H     6.120000000     1.773000000    -1.410000000
O     3.736000000    -1.396000000    -3.426000000
H     3.542000000    -1.268000000    -2.497000000
H     2.978000000    -1.031000000    -3.882000000
O    -1.173000000     1.633000000    -6.787000000
H    -1.998000000     1.621000000    -6.301000000
H    -0.506000000     1.802000000    -6.122000000
O     3.715000000    -2.953000000    -7.217000000
H     4.374000000    -2.722000000    -6.562000000
H     2.923000000    -2.499000000    -6.931000000
O     5.259000000    -2.665000000    -5.255000000
H     5.710000000    -3.390000000    -4.822000000
H     4.833000000    -2.188000000    -4.542000000
O     5.248000000     5.028000000    -6.099000000
H     4.582000000     4.360000000    -6.264000000
H     5.205000000     5.603000000    -6.863000000
O     2.064000000     0.939000000    -7.249000000
H     1.890000000     0.673000000    -6.346000000
H     2.887000000     1.426000000    -7.201000000
O     6.606000000     2.070000000    -6.159000000
H     5.983000000     2.759000000    -6.390000000
H     7.169000000     2.469000000    -5.495000000
O    -0.105000000    -4.648000000    -8.023000000
H    -0.051000000    -3.778000000    -7.626000000
H     0.738000000    -5.055000000    -7.823000000
O    -2.834000000    -0.416000000    -7.772000000
H    -2.750000000    -0.450000000    -8.725000000
H    -2.052000000     0.053000000    -7.480000000
O     1.396000000     5.674000000    -6.308000000
H     2.026000000     6.256000000    -5.882000000
H     1.673000000     5.651000000    -7.224000000
O     3.309000000    -0.023000000    -9.663000000
H     4.006000000     0.106000000    -9.020000000
H     2.570000000     0.478000000    -9.318000000
O     0.227000000    -0.930000000    -8.559000000
H     0.502000000    -1.590000000    -7.922000000
H     0.554000000    -0.104000000    -8.203000000
O     0.793000000    -2.606000000    -6.064000000
H     0.881000000    -1.723000000    -5.707000000
H     0.558000000    -3.147000000    -5.310000000
O     3.989000000     3.018000000    -7.646000000
H     3.851000000     3.632000000    -8.367000000
H     4.603000000     2.372000000    -7.995000000
O    -3.558000000     3.790000000    -7.763000000
H    -3.030000000     3.489000000    -8.503000000
H    -3.152000000     3.382000000    -6.999000000
O     4.206000000     2.364000000    -3.553000000
H     3.471000000     2.975000000    -3.496000000
H     3.796000000     1.501000000    -3.606000000
O     6.119000000     4.306000000    -3.380000000
H     5.544000000     3.540000000    -3.401000000
H     5.870000000     4.813000000    -4.153000000
O     0.641000000     3.579000000    -8.479000000
H     1.103000000     3.088000000    -9.157000000
H     0.356000000     2.914000000    -7.852000000
O     2.181000000     3.833000000    -4.526000000
H     1.647000000     3.057000000    -4.693000000
H     1.809000000     4.507000000    -5.094000000
