201
-1275.03385
C    -4.142000000    -1.963000000    -2.130000000
H    -3.646000000    -1.496000000    -2.977000000
C    -4.475000000    -1.162000000    -1.045000000
C    -5.021000000    -1.757000000     0.090000000
H    -5.261000000    -1.254000000     1.023000000
C    -4.053000000     0.290000000    -1.012000000
O    -4.265000000     0.913000000    -2.283000000
H    -2.989000000     0.358000000    -0.741000000
O    -4.878000000     1.035000000    -0.094000000
C    -4.319000000     1.968000000     0.727000000
C    -3.929000000     1.530000000     1.958000000
H    -4.314000000     0.562000000     2.268000000
C    -3.125000000     2.196000000     2.859000000
O    -2.750000000     1.593000000     4.037000000
C    -2.680000000     3.445000000     2.406000000
C    -1.660000000     4.238000000     3.304000000
H    -1.676000000     5.309000000     3.095000000
C    -0.207000000     3.771000000     3.053000000
C     0.612000000     4.524000000     2.272000000
H     0.183000000     5.390000000     1.773000000
H    -1.947000000     4.116000000     4.351000000
C    -3.088000000     3.996000000     1.146000000
H    -2.730000000     4.968000000     0.817000000
C    -3.895000000     3.199000000     0.281000000
C    -4.149000000     3.649000000    -1.129000000
H    -4.002000000     4.728000000    -1.043000000
H    -5.204000000     3.468000000    -1.348000000
C    -3.102000000     3.067000000    -2.154000000
C    -1.989000000     3.827000000    -2.461000000
H    -1.861000000     4.775000000    -1.946000000
C    -3.261000000     1.805000000    -2.691000000
C    -2.266000000     1.314000000    -3.545000000
H    -2.282000000     0.289000000    -3.906000000
C    -1.175000000     2.073000000    -3.869000000
O    -0.197000000     1.530000000    -4.726000000
C     1.004000000     1.011000000    -4.047000000
C     1.501000000    -0.368000000    -4.595000000
C     2.819000000    -0.782000000    -4.483000000
H     3.517000000    -0.039000000    -4.105000000
C     0.560000000    -1.320000000    -5.063000000
H    -0.482000000    -1.022000000    -5.147000000
O     2.066000000     2.030000000    -4.133000000
H     0.835000000     0.712000000    -3.002000000
C    -1.018000000     3.362000000    -3.334000000
C     0.209000000     4.247000000    -3.556000000
H    -0.122000000     5.283000000    -3.461000000
H     0.555000000     4.036000000    -4.570000000
C     1.340000000     3.855000000    -2.635000000
C     1.494000000     4.394000000    -1.354000000
H     0.821000000     5.216000000    -1.124000000
C     2.188000000     2.783000000    -3.018000000
C     3.323000000     2.575000000    -2.190000000
H     4.110000000     1.907000000    -2.532000000
C     3.399000000     3.111000000    -0.903000000
O     4.236000000     2.506000000    -0.073000000
C     3.785000000     1.633000000     0.962000000
C     4.685000000     0.348000000     1.056000000
C     5.685000000     0.024000000     0.099000000
H     5.700000000     0.665000000    -0.779000000
C     4.649000000    -0.483000000     2.141000000
H     3.860000000    -0.237000000     2.848000000
O     3.668000000     2.385000000     2.205000000
H     2.807000000     1.277000000     0.607000000
C     2.514000000     4.068000000    -0.491000000
C     2.670000000     4.755000000     0.854000000
H     2.311000000     5.782000000     0.764000000
H     3.669000000     4.884000000     1.275000000
C     1.886000000     4.038000000     1.879000000
C     2.416000000     2.904000000     2.526000000
C     1.613000000     2.156000000     3.373000000
H     1.915000000     1.218000000     3.832000000
C     0.315000000     2.537000000     3.595000000
O    -0.449000000     1.807000000     4.453000000
C    -1.457000000     0.937000000     3.912000000
H    -1.260000000     0.670000000     2.864000000
C    -1.441000000    -0.501000000     4.642000000
C    -2.650000000    -1.200000000     4.897000000
H    -3.560000000    -0.614000000     4.797000000
C    -0.211000000    -1.170000000     4.854000000
H     0.682000000    -0.595000000     4.622000000
C    -0.159000000    -2.511000000     5.210000000
O     0.985000000    -3.173000000     5.511000000
C    -1.379000000    -3.124000000     5.333000000
H    -1.323000000    -4.162000000     5.653000000
C    -2.617000000    -2.557000000     5.162000000
O    -3.730000000    -3.341000000     5.388000000
C    -4.862000000    -3.064000000     4.618000000
C    -4.806000000    -3.481000000     3.313000000
H    -3.908000000    -3.978000000     2.956000000
C    -5.981000000    -2.491000000     5.129000000
H    -6.063000000    -2.301000000     6.196000000
C    -7.033000000    -2.198000000     4.263000000
H    -7.972000000    -1.846000000     4.683000000
C    -6.951000000    -2.522000000     2.870000000
H    -7.732000000    -2.336000000     2.137000000
C    -5.826000000    -3.280000000     2.464000000
O    -5.701000000    -3.797000000     1.186000000
C    -5.227000000    -3.110000000     0.118000000
C    -4.865000000    -3.890000000    -0.983000000
H    -5.011000000    -4.967000000    -0.972000000
C    -4.260000000    -3.336000000    -2.102000000
O    -3.773000000    -4.228000000    -3.092000000
C    -3.234000000    -3.732000000    -4.253000000
C    -1.866000000    -3.852000000    -4.560000000
H    -1.160000000    -4.236000000    -3.828000000
C    -4.013000000    -3.120000000    -5.212000000
H    -5.080000000    -3.028000000    -5.025000000
C    -3.506000000    -2.623000000    -6.407000000
H    -4.225000000    -2.126000000    -7.052000000
C    -2.134000000    -2.715000000    -6.719000000
H    -1.757000000    -2.248000000    -7.625000000
C    -1.318000000    -3.315000000    -5.729000000
O     0.012000000    -3.452000000    -5.966000000
C     0.934000000    -2.615000000    -5.386000000
C     2.264000000    -2.993000000    -5.126000000
H     2.555000000    -4.015000000    -5.353000000
C     3.201000000    -2.114000000    -4.634000000
O     4.493000000    -2.569000000    -4.439000000
C     5.483000000    -1.799000000    -3.978000000
C     5.965000000    -2.029000000    -2.651000000
H     5.453000000    -2.839000000    -2.138000000
C     6.131000000    -0.835000000    -4.756000000
H     5.780000000    -0.648000000    -5.767000000
C     7.186000000    -0.109000000    -4.290000000
H     7.696000000     0.626000000    -4.908000000
C     7.593000000    -0.327000000    -3.017000000
H     8.498000000     0.157000000    -2.662000000
C     6.972000000    -1.221000000    -2.148000000
O     7.448000000    -1.352000000    -0.817000000
C     6.618000000    -1.048000000     0.224000000
C     6.467000000    -1.885000000     1.311000000
H     7.084000000    -2.778000000     1.380000000
C     5.520000000    -1.589000000     2.303000000
O     5.218000000    -2.489000000     3.312000000
C     4.362000000    -2.241000000     4.363000000
C     4.723000000    -1.385000000     5.387000000
H     5.683000000    -0.878000000     5.350000000
C     3.873000000    -1.130000000     6.479000000
H     4.119000000    -0.474000000     7.311000000
C     2.628000000    -1.729000000     6.527000000
H     1.921000000    -1.612000000     7.345000000
C     2.233000000    -2.610000000     5.446000000
C     3.100000000    -2.856000000     4.331000000
H     2.848000000    -3.488000000     3.483000000
O    -2.957000000    -6.977000000    -5.246000000
H    -2.899000000    -7.138000000    -4.304000000
H    -2.081000000    -6.681000000    -5.492000000
O    -5.277000000    -8.897000000    -3.489000000
H    -4.471000000    -8.393000000    -3.370000000
H    -5.759000000    -8.772000000    -2.671000000
O    -3.617000000   -10.698000000    -1.327000000
H    -3.283000000   -10.244000000    -0.554000000
H    -4.465000000   -11.046000000    -1.054000000
O    -2.850000000    -7.569000000    -2.548000000
H    -2.673000000    -6.891000000    -1.896000000
H    -2.118000000    -8.179000000    -2.463000000
O    -4.592000000    -8.993000000     1.880000000
H    -4.453000000    -8.471000000     1.090000000
H    -4.465000000    -8.375000000     2.600000000
O    -0.024000000    -8.451000000    -1.533000000
H     0.863000000    -8.548000000    -1.879000000
H    -0.103000000    -7.518000000    -1.335000000
O    -1.831000000    -6.826000000     3.786000000
H    -2.498000000    -7.434000000     3.467000000
H    -1.548000000    -7.198000000     4.621000000
O     1.294000000    -6.328000000    -3.588000000
H     2.148000000    -5.908000000    -3.695000000
H     0.935000000    -5.940000000    -2.790000000
O    -0.392000000    -6.645000000    -5.958000000
H     0.061000000    -5.939000000    -6.418000000
H     0.090000000    -6.744000000    -5.137000000
O    -3.556000000    -6.378000000     1.603000000
H    -4.290000000    -5.823000000     1.339000000
H    -2.847000000    -6.136000000     1.008000000
O     3.391000000    -4.800000000    -2.479000000
H     3.677000000    -4.199000000    -1.791000000
H     4.018000000    -4.667000000    -3.189000000
O     4.496000000    -7.132000000    -0.185000000
H     4.461000000    -6.877000000     0.737000000
H     3.881000000    -6.543000000    -0.621000000
O    -1.638000000   -10.295000000    -3.179000000
H    -2.423000000   -10.603000000    -2.726000000
H    -1.102000000    -9.902000000    -2.489000000
O    -0.229000000    -4.600000000     2.763000000
H     0.048000000    -5.307000000     3.347000000
H    -1.177000000    -4.707000000     2.691000000
O     1.625000000    -5.971000000     0.575000000
H     1.836000000    -5.049000000     0.726000000
H     1.035000000    -5.961000000    -0.179000000
O     1.465000000    -2.851000000     1.479000000
H     1.039000000    -3.379000000     2.154000000
H     0.754000000    -2.343000000     1.089000000
O     1.070000000    -7.532000000     2.640000000
H     0.146000000    -7.328000000     2.494000000
H     1.528000000    -7.092000000     1.923000000
O    -1.788000000    -9.244000000     0.609000000
H    -1.881000000    -8.299000000     0.488000000
H    -0.844000000    -9.398000000     0.579000000
O     3.829000000    -3.478000000    -0.217000000
H     3.010000000    -3.231000000     0.214000000
H     4.486000000    -3.440000000     0.477000000
