201
-1268.24622
C    -2.969000000    -3.382000000    -2.726000000
H    -3.649000000    -2.592000000    -2.418000000
C    -2.242000000    -4.091000000    -1.751000000
C    -1.188000000    -4.952000000    -2.164000000
H    -0.439000000    -5.317000000    -1.465000000
C    -2.419000000    -3.732000000    -0.344000000
O    -3.779000000    -3.339000000    -0.081000000
H    -1.777000000    -2.845000000    -0.240000000
O    -2.028000000    -4.765000000     0.622000000
C    -1.293000000    -4.348000000     1.665000000
C     0.073000000    -4.246000000     1.465000000
H     0.451000000    -4.754000000     0.581000000
C     0.936000000    -3.682000000     2.437000000
O     2.306000000    -3.683000000     2.152000000
C     0.303000000    -3.105000000     3.594000000
C     1.147000000    -2.551000000     4.723000000
H     0.537000000    -2.537000000     5.629000000
C     1.456000000    -1.073000000     4.558000000
C     0.642000000     0.025000000     4.960000000
H    -0.270000000    -0.181000000     5.514000000
H     2.073000000    -3.088000000     4.935000000
C    -1.097000000    -3.117000000     3.728000000
H    -1.523000000    -2.601000000     4.585000000
C    -1.869000000    -3.728000000     2.749000000
C    -3.385000000    -3.569000000     2.754000000
H    -3.689000000    -3.583000000     3.803000000
H    -3.834000000    -4.418000000     2.233000000
C    -3.822000000    -2.251000000     1.996000000
C    -3.996000000    -1.091000000     2.701000000
H    -3.748000000    -1.117000000     3.759000000
C    -4.084000000    -2.267000000     0.639000000
C    -4.462000000    -1.085000000    -0.013000000
H    -4.557000000    -1.160000000    -1.094000000
C    -4.640000000     0.081000000     0.728000000
O    -4.790000000     1.237000000     0.003000000
C    -3.740000000     2.183000000    -0.220000000
C    -3.840000000     2.697000000    -1.613000000
C    -3.106000000     3.896000000    -2.000000000
H    -2.623000000     4.432000000    -1.186000000
C    -4.412000000     2.050000000    -2.667000000
H    -4.867000000     1.085000000    -2.457000000
O    -3.798000000     3.161000000     0.769000000
H    -2.702000000     1.827000000    -0.151000000
C    -4.451000000     0.071000000     2.101000000
C    -4.438000000     1.394000000     2.867000000
H    -4.663000000     1.224000000     3.922000000
H    -5.212000000     2.061000000     2.482000000
C    -3.112000000     2.150000000     2.814000000
C    -2.210000000     1.968000000     3.794000000
H    -2.477000000     1.255000000     4.569000000
C    -2.944000000     3.092000000     1.838000000
C    -1.708000000     3.823000000     1.793000000
H    -1.471000000     4.385000000     0.893000000
C    -0.702000000     3.613000000     2.743000000
O     0.598000000     4.068000000     2.470000000
C     1.642000000     3.202000000     2.001000000
C     2.493000000     3.881000000     0.950000000
C     1.859000000     4.865000000     0.262000000
H     0.792000000     5.015000000     0.404000000
C     3.784000000     3.419000000     0.665000000
H     4.205000000     2.614000000     1.262000000
O     2.457000000     2.777000000     3.137000000
H     1.147000000     2.330000000     1.547000000
C    -1.000000000     2.705000000     3.750000000
C     0.080000000     2.410000000     4.813000000
H    -0.528000000     2.169000000     5.687000000
H     0.672000000     3.296000000     5.049000000
C     1.025000000     1.313000000     4.503000000
C     2.216000000     1.547000000     3.753000000
C     2.968000000     0.464000000     3.369000000
H     3.769000000     0.662000000     2.661000000
C     2.638000000    -0.813000000     3.821000000
O     3.473000000    -1.764000000     3.184000000
C     2.910000000    -2.373000000     2.000000000
H     2.157000000    -1.767000000     1.476000000
C     4.045000000    -2.552000000     0.984000000
C     3.838000000    -3.362000000    -0.101000000
H     2.964000000    -4.007000000    -0.108000000
C     5.195000000    -1.843000000     1.120000000
H     5.420000000    -1.171000000     1.944000000
C     6.105000000    -1.844000000     0.045000000
O     7.206000000    -1.095000000     0.138000000
C     5.853000000    -2.558000000    -1.139000000
H     6.574000000    -2.591000000    -1.952000000
C     4.707000000    -3.351000000    -1.207000000
O     4.337000000    -4.019000000    -2.323000000
C     3.456000000    -5.120000000    -2.394000000
C     2.269000000    -4.870000000    -3.057000000
H     1.998000000    -4.009000000    -3.663000000
C     3.639000000    -6.362000000    -1.720000000
H     4.548000000    -6.468000000    -1.135000000
C     2.696000000    -7.394000000    -1.813000000
H     2.893000000    -8.357000000    -1.347000000
C     1.563000000    -7.104000000    -2.573000000
H     0.810000000    -7.878000000    -2.699000000
C     1.341000000    -5.923000000    -3.199000000
O     0.188000000    -5.732000000    -3.973000000
C    -0.874000000    -5.047000000    -3.520000000
C    -1.630000000    -4.391000000    -4.433000000
H    -1.371000000    -4.625000000    -5.462000000
C    -2.688000000    -3.534000000    -4.061000000
O    -3.262000000    -2.821000000    -5.035000000
C    -4.230000000    -1.855000000    -4.779000000
C    -3.956000000    -0.521000000    -5.119000000
H    -3.044000000    -0.180000000    -5.603000000
C    -5.507000000    -2.265000000    -4.404000000
H    -5.705000000    -3.323000000    -4.253000000
C    -6.536000000    -1.342000000    -4.215000000
H    -7.553000000    -1.596000000    -3.926000000
C    -6.270000000     0.041000000    -4.507000000
H    -6.850000000     0.899000000    -4.179000000
C    -4.985000000     0.409000000    -4.919000000
O    -4.748000000     1.703000000    -5.076000000
C    -4.291000000     2.485000000    -4.019000000
C    -3.618000000     3.658000000    -4.358000000
H    -3.530000000     3.931000000    -5.407000000
C    -3.016000000     4.378000000    -3.345000000
O    -2.417000000     5.603000000    -3.529000000
C    -1.512000000     6.191000000    -2.699000000
C    -0.136000000     5.948000000    -2.741000000
H     0.385000000     5.176000000    -3.302000000
C    -2.019000000     7.109000000    -1.749000000
H    -3.068000000     7.372000000    -1.860000000
C    -1.171000000     7.686000000    -0.785000000
H    -1.552000000     8.364000000    -0.026000000
C     0.127000000     7.351000000    -0.791000000
H     0.780000000     7.851000000    -0.080000000
C     0.664000000     6.516000000    -1.789000000
O     2.017000000     6.261000000    -1.763000000
C     2.568000000     5.402000000    -0.850000000
C     3.890000000     5.018000000    -1.100000000
H     4.461000000     5.341000000    -1.967000000
C     4.460000000     3.948000000    -0.420000000
O     5.769000000     3.550000000    -0.727000000
C     6.519000000     2.608000000     0.013000000
C     7.313000000     3.067000000     1.067000000
H     7.253000000     4.116000000     1.342000000
C     7.920000000     2.110000000     1.923000000
H     8.375000000     2.393000000     2.869000000
C     7.860000000     0.726000000     1.606000000
H     8.372000000     0.013000000     2.247000000
C     7.157000000     0.270000000     0.472000000
C     6.610000000     1.250000000    -0.419000000
H     6.199000000     0.955000000    -1.381000000
O     3.119000000     0.592000000    -0.701000000
H     2.392000000     0.101000000    -1.085000000
H     3.538000000     1.022000000    -1.446000000
O     4.587000000     0.927000000    -3.239000000
H     5.305000000     1.480000000    -3.548000000
H     4.527000000     0.227000000    -3.889000000
O    -1.110000000     2.082000000    -5.790000000
H    -1.480000000     2.965000000    -5.793000000
H    -0.196000000     2.205000000    -5.534000000
O     3.091000000     5.883000000    -5.097000000
H     2.239000000     5.649000000    -5.464000000
H     3.333000000     5.131000000    -4.555000000
O     5.655000000    -0.128000000    -5.957000000
H     6.571000000     0.110000000    -5.816000000
H     5.223000000     0.699000000    -6.172000000
O     1.399000000     0.144000000    -7.688000000
H     1.320000000     0.148000000    -6.735000000
H     2.002000000    -0.576000000    -7.876000000
O     5.107000000     2.441000000    -5.997000000
H     5.347000000     3.000000000    -5.258000000
H     4.237000000     2.746000000    -6.255000000
O     4.374000000    -5.007000000    -5.440000000
H     3.488000000    -4.841000000    -5.763000000
H     4.698000000    -4.145000000    -5.177000000
O     1.220000000     1.688000000    -9.868000000
H     1.210000000     1.075000000    -9.133000000
H     0.409000000     2.188000000    -9.774000000
O     2.823000000     3.421000000    -3.656000000
H     3.644000000     2.939000000    -3.552000000
H     2.194000000     2.762000000    -3.949000000
O     2.855000000    -2.145000000    -7.750000000
H     3.793000000    -2.048000000    -7.583000000
H     2.552000000    -2.750000000    -7.073000000
O    -0.054000000    -2.342000000    -5.637000000
H    -0.735000000    -2.395000000    -4.967000000
H     0.571000000    -1.703000000    -5.295000000
O     3.765000000    -1.910000000    -5.095000000
H     2.959000000    -1.433000000    -5.296000000
H     4.463000000    -1.272000000    -5.243000000
O    -0.128000000     4.641000000    -7.251000000
H    -0.439000000     4.285000000    -8.084000000
H    -0.577000000     5.483000000    -7.168000000
O     2.297000000     2.823000000    -7.006000000
H     2.020000000     2.040000000    -6.530000000
H     1.514000000     3.373000000    -7.040000000
O     6.060000000     3.268000000    -3.388000000
H     6.960000000     3.380000000    -3.696000000
H     5.997000000     3.838000000    -2.621000000
O    -2.068000000     0.677000000    -8.004000000
H    -1.827000000     1.151000000    -7.207000000
H    -1.254000000     0.263000000    -8.292000000
O     1.675000000    -4.437000000    -6.196000000
H     0.990000000    -3.770000000    -6.227000000
H     1.273000000    -5.172000000    -5.732000000
O     4.160000000     4.597000000    -8.418000000
H     3.456000000     4.157000000    -7.942000000
H     4.368000000     4.003000000    -9.139000000
