201
-1261.00153
C    -3.154000000    -3.530000000    -2.694000000
H    -4.012000000    -2.953000000    -2.358000000
C    -2.167000000    -3.984000000    -1.825000000
C    -1.043000000    -4.674000000    -2.418000000
H    -0.290000000    -4.984000000    -1.699000000
C    -2.256000000    -3.592000000    -0.348000000
O    -3.630000000    -3.373000000     0.175000000
H    -1.719000000    -2.642000000    -0.207000000
O    -1.718000000    -4.678000000     0.513000000
C    -0.909000000    -4.284000000     1.624000000
C     0.452000000    -4.286000000     1.391000000
H     0.888000000    -4.713000000     0.492000000
C     1.311000000    -3.731000000     2.323000000
O     2.622000000    -3.571000000     2.060000000
C     0.790000000    -3.206000000     3.533000000
C     1.699000000    -2.621000000     4.625000000
H     1.274000000    -2.695000000     5.628000000
C     2.003000000    -1.084000000     4.417000000
C     1.096000000    -0.142000000     4.912000000
H     0.310000000    -0.484000000     5.581000000
H     2.602000000    -3.230000000     4.546000000
C    -0.586000000    -3.279000000     3.740000000
H    -1.022000000    -2.846000000     4.637000000
C    -1.459000000    -3.738000000     2.770000000
C    -2.936000000    -3.589000000     3.031000000
H    -3.176000000    -3.554000000     4.095000000
H    -3.479000000    -4.447000000     2.628000000
C    -3.517000000    -2.348000000     2.310000000
C    -3.703000000    -1.228000000     3.106000000
H    -3.316000000    -1.270000000     4.121000000
C    -3.924000000    -2.349000000     0.981000000
C    -4.442000000    -1.189000000     0.421000000
H    -4.754000000    -1.304000000    -0.614000000
C    -4.611000000    -0.080000000     1.211000000
O    -4.986000000     1.075000000     0.571000000
C    -3.903000000     2.032000000     0.251000000
C    -4.039000000     2.686000000    -1.162000000
C    -3.726000000     4.062000000    -1.366000000
H    -3.456000000     4.759000000    -0.577000000
C    -4.381000000     1.846000000    -2.217000000
H    -4.517000000     0.782000000    -2.038000000
O    -3.892000000     3.073000000     1.251000000
H    -2.985000000     1.428000000     0.297000000
C    -4.265000000    -0.041000000     2.556000000
C    -4.407000000     1.189000000     3.510000000
H    -4.510000000     0.757000000     4.508000000
H    -5.318000000     1.782000000     3.406000000
C    -3.171000000     2.105000000     3.406000000
C    -2.177000000     1.996000000     4.364000000
H    -2.266000000     1.240000000     5.140000000
C    -3.059000000     3.053000000     2.381000000
C    -1.837000000     3.703000000     2.203000000
H    -1.767000000     4.399000000     1.371000000
C    -0.758000000     3.460000000     3.078000000
O     0.512000000     4.052000000     2.785000000
C     1.502000000     3.176000000     2.152000000
C     2.289000000     3.788000000     1.029000000
C     1.582000000     4.160000000    -0.122000000
H     0.516000000     3.991000000    -0.245000000
C     3.675000000     3.858000000     0.934000000
H     4.275000000     3.429000000     1.733000000
O     2.359000000     2.833000000     3.154000000
H     1.092000000     2.239000000     1.746000000
C    -0.924000000     2.622000000     4.195000000
C     0.206000000     2.231000000     5.101000000
H    -0.203000000     1.950000000     6.074000000
H     0.775000000     3.118000000     5.386000000
C     1.160000000     1.218000000     4.561000000
C     2.268000000     1.605000000     3.755000000
C     3.181000000     0.702000000     3.242000000
H     3.962000000     1.042000000     2.566000000
C     3.009000000    -0.692000000     3.548000000
O     3.792000000    -1.654000000     2.861000000
C     3.192000000    -2.324000000     1.722000000
H     2.398000000    -1.605000000     1.471000000
C     4.206000000    -2.365000000     0.564000000
C     4.004000000    -3.275000000    -0.469000000
H     3.208000000    -3.993000000    -0.289000000
C     5.168000000    -1.388000000     0.446000000
H     5.413000000    -0.669000000     1.223000000
C     5.876000000    -1.338000000    -0.773000000
O     6.866000000    -0.387000000    -1.040000000
C     5.735000000    -2.299000000    -1.778000000
H     6.424000000    -2.201000000    -2.614000000
C     4.725000000    -3.226000000    -1.651000000
O     4.495000000    -4.105000000    -2.638000000
C     3.480000000    -5.050000000    -2.760000000
C     2.344000000    -4.741000000    -3.519000000
H     2.300000000    -3.835000000    -4.117000000
C     3.388000000    -6.208000000    -1.964000000
H     4.265000000    -6.392000000    -1.349000000
C     2.336000000    -7.058000000    -1.965000000
H     2.338000000    -7.976000000    -1.384000000
C     1.255000000    -6.806000000    -2.827000000
H     0.389000000    -7.448000000    -2.687000000
C     1.288000000    -5.657000000    -3.568000000
O     0.214000000    -5.312000000    -4.336000000
C    -0.942000000    -4.866000000    -3.803000000
C    -2.021000000    -4.514000000    -4.562000000
H    -2.029000000    -4.825000000    -5.603000000
C    -3.142000000    -3.811000000    -4.065000000
O    -4.086000000    -3.371000000    -4.964000000
C    -4.788000000    -2.252000000    -4.743000000
C    -4.218000000    -1.005000000    -4.924000000
H    -3.223000000    -1.033000000    -5.361000000
C    -6.074000000    -2.304000000    -4.277000000
H    -6.589000000    -3.243000000    -4.091000000
C    -6.758000000    -1.215000000    -3.902000000
H    -7.776000000    -1.234000000    -3.521000000
C    -6.171000000     0.055000000    -4.027000000
H    -6.773000000     0.887000000    -3.672000000
C    -4.864000000     0.164000000    -4.545000000
O    -4.235000000     1.400000000    -4.608000000
C    -4.244000000     2.255000000    -3.524000000
C    -3.948000000     3.613000000    -3.789000000
H    -3.845000000     3.904000000    -4.831000000
C    -3.692000000     4.504000000    -2.709000000
O    -3.240000000     5.738000000    -2.931000000
C    -1.907000000     6.191000000    -2.557000000
C    -0.858000000     5.304000000    -2.578000000
H    -1.037000000     4.285000000    -2.910000000
C    -1.783000000     7.547000000    -2.262000000
H    -2.720000000     8.093000000    -2.176000000
C    -0.535000000     8.035000000    -1.964000000
H    -0.430000000     9.098000000    -1.763000000
C     0.585000000     7.189000000    -1.996000000
H     1.567000000     7.624000000    -1.827000000
C     0.415000000     5.821000000    -2.258000000
O     1.564000000     4.978000000    -2.387000000
C     2.269000000     4.605000000    -1.256000000
C     3.654000000     4.816000000    -1.247000000
H     4.065000000     5.312000000    -2.122000000
C     4.379000000     4.323000000    -0.162000000
O     5.757000000     4.210000000    -0.231000000
C     6.424000000     3.106000000     0.125000000
C     7.440000000     3.188000000     1.122000000
H     7.617000000     4.115000000     1.661000000
C     8.095000000     2.044000000     1.554000000
H     8.839000000     2.185000000     2.334000000
C     7.884000000     0.831000000     0.846000000
H     8.360000000    -0.082000000     1.195000000
C     7.014000000     0.770000000    -0.251000000
C     6.272000000     1.922000000    -0.635000000
H     5.650000000     1.904000000    -1.526000000
O     3.680000000     2.170000000    -3.411000000
H     4.380000000     2.519000000    -3.962000000
H     3.841000000     1.227000000    -3.388000000
O     5.338000000    -0.246000000    -5.664000000
H     5.735000000    -1.114000000    -5.736000000
H     4.411000000    -0.390000000    -5.854000000
O    -1.632000000     2.221000000    -5.894000000
H    -1.500000000     1.386000000    -5.443000000
H    -2.351000000     2.052000000    -6.504000000
O    -3.620000000     2.360000000    -8.330000000
H    -2.910000000     2.254000000    -8.963000000
H    -4.331000000     2.759000000    -8.831000000
O     2.536000000     4.820000000    -5.322000000
H     2.292000000     3.965000000    -4.968000000
H     2.099000000     5.451000000    -4.750000000
O     1.015000000    -0.661000000    -7.802000000
H     0.312000000    -0.389000000    -7.212000000
H     0.786000000    -1.556000000    -8.052000000
O     1.292000000    -0.774000000   -11.429000000
H     1.044000000    -0.451000000   -10.562000000
H     1.400000000     0.016000000   -11.957000000
O    -2.893000000    -2.588000000   -10.682000000
H    -3.239000000    -2.661000000    -9.793000000
H    -2.931000000    -1.652000000   -10.878000000
O    -3.190000000    -2.171000000    -7.926000000
H    -2.697000000    -2.032000000    -7.117000000
H    -3.830000000    -1.459000000    -7.942000000
O     1.149000000     2.250000000    -4.962000000
H     1.361000000     1.739000000    -4.180000000
H     0.249000000     2.542000000    -4.820000000
O    -0.048000000    -3.663000000    -9.726000000
H     0.297000000    -3.844000000    -8.851000000
H    -0.926000000    -4.044000000    -9.721000000
O     0.694000000    -3.775000000    -6.954000000
H     0.117000000    -4.433000000    -6.566000000
H     0.613000000    -3.016000000    -6.377000000
O     2.985000000    -1.331000000    -5.859000000
H     2.310000000    -1.624000000    -5.246000000
H     2.498000000    -0.925000000    -6.576000000
O    -5.059000000    -0.383000000    -8.425000000
H    -5.492000000     0.098000000    -7.719000000
H    -4.572000000     0.286000000    -8.906000000
O    -0.907000000     5.101000000    -5.871000000
H    -1.752000000     5.551000000    -5.876000000
H    -1.078000000     4.262000000    -6.298000000
O     1.698000000     2.300000000    -7.667000000
H     1.524000000     1.368000000    -7.796000000
H     1.495000000     2.457000000    -6.745000000
O     3.676000000    -2.854000000    -8.438000000
H     3.815000000    -2.363000000    -9.248000000
H     3.424000000    -2.189000000    -7.796000000
O    -1.300000000     1.845000000    -9.880000000
H    -1.002000000     2.574000000   -10.423000000
H    -0.504000000     1.513000000    -9.465000000
O     2.912000000    -5.536000000    -8.082000000
H     2.056000000    -5.339000000    -7.700000000
H     3.323000000    -4.680000000    -8.201000000
