201
-1253.28054
C    -3.966000000    -3.705000000    -2.464000000
H    -4.824000000    -3.566000000    -1.810000000
C    -2.684000000    -3.986000000    -1.917000000
C    -1.613000000    -4.221000000    -2.782000000
H    -0.632000000    -4.360000000    -2.336000000
C    -2.457000000    -3.958000000    -0.419000000
O    -3.625000000    -3.864000000     0.370000000
H    -1.947000000    -2.986000000    -0.355000000
O    -1.564000000    -5.024000000    -0.017000000
C    -0.567000000    -4.590000000     0.841000000
C     0.719000000    -4.362000000     0.330000000
H     0.909000000    -4.341000000    -0.740000000
C     1.738000000    -3.885000000     1.184000000
O     2.949000000    -3.552000000     0.678000000
C     1.413000000    -3.596000000     2.515000000
C     2.494000000    -3.215000000     3.533000000
H     2.271000000    -3.585000000     4.535000000
C     2.755000000    -1.710000000     3.608000000
C     2.039000000    -0.826000000     4.440000000
H     1.436000000    -1.294000000     5.213000000
H     3.426000000    -3.744000000     3.323000000
C     0.108000000    -3.837000000     3.013000000
H    -0.128000000    -3.495000000     4.017000000
C    -0.906000000    -4.316000000     2.188000000
C    -2.287000000    -4.420000000     2.711000000
H    -2.192000000    -4.654000000     3.774000000
H    -2.780000000    -5.313000000     2.322000000
C    -3.002000000    -3.093000000     2.560000000
C    -2.951000000    -2.077000000     3.564000000
H    -2.510000000    -2.419000000     4.497000000
C    -3.560000000    -2.791000000     1.300000000
C    -4.094000000    -1.521000000     1.056000000
H    -4.545000000    -1.249000000     0.105000000
C    -4.025000000    -0.536000000     1.963000000
O    -4.535000000     0.727000000     1.524000000
C    -3.494000000     1.687000000     1.267000000
C    -3.657000000     2.429000000    -0.018000000
C    -3.385000000     3.801000000    -0.217000000
H    -3.156000000     4.459000000     0.618000000
C    -3.917000000     1.703000000    -1.182000000
H    -4.110000000     0.634000000    -1.194000000
O    -3.481000000     2.449000000     2.525000000
H    -2.580000000     1.078000000     1.212000000
C    -3.497000000    -0.818000000     3.260000000
C    -3.540000000     0.205000000     4.353000000
H    -3.668000000    -0.201000000     5.358000000
H    -4.450000000     0.805000000     4.289000000
C    -2.344000000     1.118000000     4.180000000
C    -1.187000000     0.965000000     4.916000000
H    -1.022000000     0.125000000     5.586000000
C    -2.420000000     2.190000000     3.248000000
C    -1.248000000     2.972000000     2.946000000
H    -1.234000000     3.623000000     2.076000000
C    -0.085000000     2.790000000     3.700000000
O     1.029000000     3.550000000     3.297000000
C     2.007000000     2.946000000     2.353000000
C     2.529000000     3.914000000     1.264000000
C     1.666000000     4.958000000     0.846000000
H     0.691000000     5.046000000     1.319000000
C     3.777000000     3.716000000     0.691000000
H     4.345000000     2.807000000     0.869000000
O     3.117000000     2.411000000     3.114000000
H     1.472000000     2.095000000     1.908000000
C    -0.016000000     1.841000000     4.731000000
C     1.359000000     1.472000000     5.342000000
H     1.268000000     0.933000000     6.288000000
H     1.919000000     2.380000000     5.573000000
C     2.146000000     0.562000000     4.384000000
C     3.054000000     1.067000000     3.444000000
C     3.738000000     0.241000000     2.558000000
H     4.280000000     0.622000000     1.695000000
C     3.584000000    -1.095000000     2.666000000
O     4.152000000    -1.858000000     1.595000000
C     3.221000000    -2.230000000     0.524000000
H     2.347000000    -1.562000000     0.523000000
C     3.862000000    -2.071000000    -0.888000000
C     3.542000000    -2.933000000    -1.958000000
H     2.752000000    -3.641000000    -1.720000000
C     4.819000000    -1.075000000    -1.123000000
H     5.063000000    -0.346000000    -0.354000000
C     5.491000000    -0.976000000    -2.361000000
O     6.365000000     0.028000000    -2.695000000
C     5.182000000    -1.802000000    -3.388000000
H     5.602000000    -1.793000000    -4.390000000
C     4.164000000    -2.772000000    -3.201000000
O     3.828000000    -3.558000000    -4.269000000
C     2.782000000    -4.416000000    -4.222000000
C     1.534000000    -4.008000000    -4.746000000
H     1.508000000    -2.997000000    -5.142000000
C     2.891000000    -5.645000000    -3.599000000
H     3.879000000    -5.980000000    -3.295000000
C     1.708000000    -6.467000000    -3.415000000
H     1.795000000    -7.367000000    -2.812000000
C     0.521000000    -6.023000000    -3.861000000
H    -0.381000000    -6.621000000    -3.755000000
C     0.409000000    -4.800000000    -4.525000000
O    -0.809000000    -4.280000000    -4.969000000
C    -1.876000000    -4.201000000    -4.163000000
C    -3.108000000    -3.792000000    -4.632000000
H    -3.156000000    -3.571000000    -5.695000000
C    -4.194000000    -3.625000000    -3.793000000
O    -5.383000000    -3.064000000    -4.147000000
C    -5.735000000    -1.797000000    -3.773000000
C    -4.813000000    -0.778000000    -3.868000000
H    -3.772000000    -1.009000000    -4.080000000
C    -7.067000000    -1.563000000    -3.579000000
H    -7.799000000    -2.359000000    -3.683000000
C    -7.478000000    -0.254000000    -3.310000000
H    -8.529000000     0.016000000    -3.247000000
C    -6.573000000     0.771000000    -3.365000000
H    -6.755000000     1.813000000    -3.118000000
C    -5.236000000     0.534000000    -3.559000000
O    -4.290000000     1.571000000    -3.633000000
C    -4.033000000     2.302000000    -2.483000000
C    -3.788000000     3.702000000    -2.580000000
H    -3.943000000     4.134000000    -3.565000000
C    -3.404000000     4.430000000    -1.466000000
O    -3.192000000     5.828000000    -1.493000000
C    -2.306000000     6.485000000    -0.624000000
C    -1.015000000     6.507000000    -1.087000000
H    -0.697000000     5.993000000    -1.990000000
C    -2.683000000     7.174000000     0.530000000
H    -3.678000000     7.096000000     0.963000000
C    -1.659000000     7.738000000     1.299000000
H    -1.804000000     8.279000000     2.231000000
C    -0.347000000     7.781000000     0.883000000
H     0.447000000     8.146000000     1.530000000
C    -0.016000000     7.114000000    -0.302000000
O     1.318000000     6.956000000    -0.669000000
C     2.011000000     5.808000000    -0.241000000
C     3.288000000     5.680000000    -0.747000000
H     3.660000000     6.394000000    -1.477000000
C     4.152000000     4.558000000    -0.391000000
O     5.418000000     4.486000000    -1.019000000
C     6.113000000     3.270000000    -1.101000000
C     7.335000000     3.286000000    -0.342000000
H     7.527000000     4.245000000     0.132000000
C     8.145000000     2.148000000    -0.296000000
H     8.991000000     2.098000000     0.385000000
C     7.756000000     1.045000000    -1.019000000
H     8.406000000     0.180000000    -0.916000000
C     6.597000000     1.079000000    -1.813000000
C     5.735000000     2.174000000    -1.808000000
H     4.813000000     2.249000000    -2.379000000
O     0.537000000     2.407000000    -6.819000000
H    -0.073000000     1.921000000    -6.264000000
H     0.840000000     3.128000000    -6.268000000
O    -4.009000000     6.778000000    -4.378000000
H    -3.220000000     6.633000000    -3.856000000
H    -4.706000000     6.894000000    -3.732000000
O    -0.855000000     8.173000000    -4.328000000
H    -0.901000000     7.261000000    -4.614000000
H     0.061000000     8.301000000    -4.082000000
O    -0.839000000     5.526000000    -5.550000000
H    -1.425000000     5.628000000    -6.301000000
H    -0.836000000     4.585000000    -5.375000000
O     2.969000000     3.770000000    -6.382000000
H     2.656000000     3.743000000    -7.286000000
H     3.395000000     2.923000000    -6.250000000
O     2.164000000     1.375000000    -8.817000000
H     1.716000000     1.467000000    -7.976000000
H     2.144000000     2.254000000    -9.196000000
O    -6.756000000     3.421000000    -5.153000000
H    -6.299000000     3.951000000    -5.807000000
H    -6.425000000     2.533000000    -5.291000000
O    -2.043000000    -1.121000000    -6.348000000
H    -1.620000000    -0.351000000    -5.968000000
H    -1.464000000    -1.849000000    -6.122000000
O    -2.000000000     1.974000000    -8.580000000
H    -2.363000000     2.261000000    -9.418000000
H    -1.294000000     1.373000000    -8.818000000
O    -5.194000000     4.658000000    -7.572000000
H    -4.437000000     4.381000000    -7.055000000
H    -5.251000000     4.013000000    -8.277000000
O    -4.462000000    -1.339000000    -7.487000000
H    -3.660000000    -1.095000000    -7.027000000
H    -4.232000000    -2.137000000    -7.962000000
O    -3.602000000     2.388000000    -6.566000000
H    -2.980000000     2.063000000    -7.217000000
H    -3.162000000     2.256000000    -5.727000000
O    -0.020000000    -2.037000000    -8.451000000
H    -0.522000000    -1.376000000    -8.927000000
H    -0.564000000    -2.824000000    -8.488000000
O    -5.968000000     1.084000000    -7.237000000
H    -5.641000000     0.203000000    -7.055000000
H    -5.224000000     1.658000000    -7.055000000
O     0.057000000     4.533000000    -8.860000000
H     0.050000000     3.611000000    -8.602000000
H    -0.715000000     4.906000000    -8.434000000
O     1.274000000    -0.690000000    -6.382000000
H     0.820000000    -1.237000000    -7.023000000
H     0.601000000    -0.091000000    -6.058000000
O     1.928000000     5.524000000    -4.699000000
H     1.007000000     5.366000000    -4.907000000
H     2.334000000     4.658000000    -4.736000000
O     2.738000000     0.980000000    -3.748000000
H     2.063000000     1.381000000    -3.200000000
H     2.380000000     0.123000000    -3.980000000
O     4.385000000     1.048000000    -5.738000000
H     3.809000000     1.074000000    -4.974000000
H     4.191000000     0.208000000    -6.155000000
