201
-1246.03668
C    -2.639000000    -3.625000000    -2.062000000
H    -3.250000000    -3.003000000    -1.414000000
C    -1.761000000    -4.491000000    -1.381000000
C    -0.817000000    -5.162000000    -2.060000000
H     0.095000000    -5.607000000    -1.670000000
C    -1.671000000    -4.164000000     0.093000000
O    -2.964000000    -4.059000000     0.824000000
H    -1.168000000    -3.201000000     0.265000000
O    -0.855000000    -5.179000000     0.675000000
C     0.112000000    -4.686000000     1.544000000
C     1.319000000    -4.313000000     0.979000000
H     1.460000000    -4.493000000    -0.083000000
C     2.239000000    -3.580000000     1.698000000
O     3.433000000    -3.241000000     1.133000000
C     1.956000000    -3.285000000     3.014000000
C     3.018000000    -2.586000000     3.813000000
H     2.842000000    -2.685000000     4.886000000
C     3.121000000    -1.062000000     3.487000000
C     2.259000000    -0.238000000     4.240000000
H     1.573000000    -0.626000000     4.988000000
H     3.973000000    -3.068000000     3.595000000
C     0.705000000    -3.531000000     3.551000000
H     0.444000000    -3.078000000     4.504000000
C    -0.233000000    -4.207000000     2.804000000
C    -1.627000000    -4.281000000     3.420000000
H    -1.503000000    -4.258000000     4.505000000
H    -1.936000000    -5.301000000     3.184000000
C    -2.557000000    -3.106000000     3.015000000
C    -2.551000000    -1.965000000     3.833000000
H    -1.923000000    -2.050000000     4.716000000
C    -3.184000000    -3.084000000     1.774000000
C    -3.836000000    -1.932000000     1.370000000
H    -4.290000000    -1.874000000     0.384000000
C    -3.893000000    -0.777000000     2.177000000
O    -4.496000000     0.382000000     1.723000000
C    -3.689000000     1.538000000     1.373000000
C    -4.353000000     2.253000000     0.186000000
C    -4.069000000     3.578000000    -0.149000000
H    -3.563000000     4.202000000     0.583000000
C    -4.918000000     1.514000000    -0.822000000
H    -5.168000000     0.467000000    -0.674000000
O    -3.555000000     2.540000000     2.402000000
H    -2.696000000     1.180000000     1.064000000
C    -3.262000000    -0.816000000     3.428000000
C    -3.395000000     0.421000000     4.338000000
H    -3.336000000     0.091000000     5.378000000
H    -4.363000000     0.925000000     4.307000000
C    -2.277000000     1.429000000     4.086000000
C    -1.029000000     1.405000000     4.711000000
H    -0.883000000     0.665000000     5.493000000
C    -2.459000000     2.469000000     3.183000000
C    -1.410000000     3.274000000     2.797000000
H    -1.637000000     4.170000000     2.224000000
C    -0.220000000     3.234000000     3.425000000
O     0.777000000     4.019000000     2.847000000
C     1.644000000     3.434000000     1.876000000
C     2.038000000     4.405000000     0.772000000
C     1.020000000     5.202000000     0.226000000
H     0.018000000     5.163000000     0.646000000
C     3.352000000     4.483000000     0.259000000
H     4.141000000     3.844000000     0.649000000
O     2.831000000     2.997000000     2.615000000
H     1.182000000     2.536000000     1.439000000
C     0.073000000     2.255000000     4.344000000
C     1.397000000     1.995000000     4.983000000
H     1.224000000     1.513000000     5.947000000
H     1.832000000     2.991000000     5.084000000
C     2.267000000     1.129000000     4.079000000
C     2.939000000     1.696000000     2.990000000
C     3.667000000     0.875000000     2.145000000
H     4.095000000     1.307000000     1.245000000
C     3.751000000    -0.472000000     2.406000000
O     4.337000000    -1.218000000     1.424000000
C     3.471000000    -1.954000000     0.578000000
H     2.452000000    -1.593000000     0.785000000
C     3.815000000    -1.913000000    -0.902000000
C     3.837000000    -3.014000000    -1.774000000
H     3.770000000    -4.007000000    -1.338000000
C     3.960000000    -0.642000000    -1.420000000
H     3.917000000     0.285000000    -0.854000000
C     4.184000000    -0.475000000    -2.790000000
O     4.427000000     0.767000000    -3.298000000
C     4.170000000    -1.567000000    -3.607000000
H     4.333000000    -1.386000000    -4.667000000
C     4.000000000    -2.824000000    -3.139000000
O     4.069000000    -3.870000000    -3.962000000
C     3.376000000    -5.060000000    -3.849000000
C     1.992000000    -5.034000000    -4.062000000
H     1.553000000    -4.109000000    -4.425000000
C     4.069000000    -6.267000000    -3.787000000
H     5.148000000    -6.258000000    -3.655000000
C     3.336000000    -7.461000000    -3.674000000
H     3.809000000    -8.438000000    -3.624000000
C     1.897000000    -7.414000000    -3.672000000
H     1.410000000    -8.355000000    -3.428000000
C     1.236000000    -6.207000000    -3.965000000
O    -0.166000000    -6.260000000    -4.032000000
C    -0.959000000    -5.297000000    -3.433000000
C    -1.975000000    -4.611000000    -4.140000000
H    -2.108000000    -4.753000000    -5.209000000
C    -2.712000000    -3.728000000    -3.468000000
O    -3.763000000    -3.016000000    -4.140000000
C    -4.666000000    -2.192000000    -3.576000000
C    -4.650000000    -0.832000000    -3.793000000
H    -3.829000000    -0.448000000    -4.393000000
C    -5.641000000    -2.785000000    -2.720000000
H    -5.725000000    -3.854000000    -2.539000000
C    -6.636000000    -1.971000000    -2.071000000
H    -7.327000000    -2.376000000    -1.336000000
C    -6.704000000    -0.636000000    -2.380000000
H    -7.404000000    -0.004000000    -1.840000000
C    -5.683000000    -0.054000000    -3.189000000
O    -5.590000000     1.314000000    -3.181000000
C    -5.189000000     2.091000000    -2.112000000
C    -4.960000000     3.445000000    -2.369000000
H    -5.080000000     3.753000000    -3.404000000
C    -4.367000000     4.216000000    -1.364000000
O    -4.122000000     5.560000000    -1.587000000
C    -3.211000000     6.274000000    -0.825000000
C    -1.882000000     6.211000000    -1.272000000
H    -1.739000000     5.438000000    -2.022000000
C    -3.586000000     7.248000000     0.017000000
H    -4.626000000     7.398000000     0.295000000
C    -2.609000000     8.190000000     0.492000000
H    -2.838000000     9.009000000     1.168000000
C    -1.280000000     8.062000000     0.077000000
H    -0.566000000     8.818000000     0.394000000
C    -0.896000000     7.010000000    -0.736000000
O     0.327000000     6.895000000    -1.281000000
C     1.262000000     6.062000000    -0.829000000
C     2.516000000     6.126000000    -1.404000000
H     2.682000000     6.713000000    -2.304000000
C     3.542000000     5.342000000    -0.868000000
O     4.715000000     5.255000000    -1.517000000
C     5.330000000     4.058000000    -1.806000000
C     6.646000000     3.885000000    -1.395000000
H     7.182000000     4.633000000    -0.816000000
C     7.197000000     2.642000000    -1.642000000
H     8.240000000     2.516000000    -1.363000000
C     6.509000000     1.592000000    -2.263000000
H     7.070000000     0.682000000    -2.457000000
C     5.148000000     1.725000000    -2.642000000
C     4.597000000     2.997000000    -2.384000000
H     3.563000000     3.211000000    -2.640000000
O     2.718000000     1.132000000    -5.560000000
H     3.466000000     0.931000000    -6.123000000
H     3.076000000     1.120000000    -4.673000000
O    -2.952000000     1.682000000    -6.641000000
H    -2.559000000     0.925000000    -6.206000000
H    -3.826000000     1.386000000    -6.895000000
O     2.455000000     3.868000000    -6.941000000
H     2.199000000     2.978000000    -6.699000000
H     1.831000000     4.430000000    -6.482000000
O    -0.120000000    -3.201000000   -10.822000000
H     0.093000000    -2.278000000   -10.960000000
H    -0.308000000    -3.266000000    -9.886000000
O     0.604000000     0.966000000    -9.334000000
H     0.899000000     0.324000000    -8.687000000
H     0.222000000     0.440000000   -10.036000000
O    -1.270000000    -0.894000000    -8.062000000
H    -1.198000000    -0.697000000    -7.128000000
H    -0.540000000    -1.488000000    -8.238000000
O    -5.379000000     0.519000000    -6.865000000
H    -5.987000000     1.049000000    -6.349000000
H    -5.779000000    -0.351000000    -6.886000000
O    -6.463000000    -2.455000000    -6.417000000
H    -6.671000000    -2.539000000    -7.347000000
H    -5.716000000    -3.039000000    -6.284000000
O    -2.285000000    -4.762000000    -9.454000000
H    -2.092000000    -5.591000000    -9.891000000
H    -1.626000000    -4.696000000    -8.763000000
O    -3.539000000    -2.186000000    -6.954000000
H    -2.855000000    -1.574000000    -7.225000000
H    -3.246000000    -2.511000000    -6.102000000
O     0.229000000     2.329000000    -5.518000000
H     1.108000000     1.976000000    -5.655000000
H    -0.345000000     1.564000000    -5.563000000
O    -0.336000000    -3.893000000    -7.223000000
H    -0.049000000    -4.674000000    -6.750000000
H    -0.205000000    -3.176000000    -6.602000000
O    -5.310000000    -1.432000000    -9.301000000
H    -5.984000000    -2.089000000    -9.131000000
H    -4.597000000    -1.660000000    -8.703000000
O     1.750000000    -0.862000000    -7.777000000
H     2.560000000    -1.370000000    -7.731000000
H     1.250000000    -1.138000000    -7.008000000
O    -1.917000000    -0.505000000   -10.582000000
H    -2.085000000    -0.720000000    -9.665000000
H    -2.136000000     0.424000000   -10.654000000
O    -2.073000000     4.048000000    -5.136000000
H    -1.251000000     3.852000000    -5.585000000
H    -2.572000000     3.232000000    -5.183000000
O    -1.407000000     2.791000000    -8.732000000
H    -1.984000000     2.321000000    -8.130000000
H    -0.709000000     2.167000000    -8.929000000
O     3.956000000    -2.843000000    -7.432000000
H     4.769000000    -3.301000000    -7.643000000
H     3.621000000    -3.294000000    -6.656000000
O     1.156000000     4.750000000    -3.921000000
H     0.747000000     3.917000000    -4.157000000
H     0.888000000     5.354000000    -4.614000000
