201
-1242.14968
C    -2.836000000    -3.414000000    -1.946000000
H    -3.378000000    -2.598000000    -1.477000000
C    -2.116000000    -4.302000000    -1.151000000
C    -1.436000000    -5.363000000    -1.760000000
H    -0.824000000    -6.033000000    -1.161000000
C    -1.937000000    -4.092000000     0.339000000
O    -3.197000000    -3.869000000     1.038000000
H    -1.447000000    -3.110000000     0.416000000
O    -1.068000000    -5.080000000     0.984000000
C    -0.039000000    -4.666000000     1.755000000
C     1.192000000    -4.586000000     1.144000000
H     1.207000000    -4.989000000     0.134000000
C     2.230000000    -3.929000000     1.775000000
O     3.300000000    -3.707000000     0.992000000
C     2.044000000    -3.378000000     3.028000000
C     3.219000000    -2.616000000     3.593000000
H     3.005000000    -2.792000000     4.649000000
C     3.252000000    -1.159000000     3.256000000
C     2.626000000    -0.246000000     4.094000000
H     2.045000000    -0.657000000     4.916000000
H     4.143000000    -3.136000000     3.334000000
C     0.716000000    -3.419000000     3.639000000
H     0.528000000    -2.930000000     4.591000000
C    -0.312000000    -4.070000000     3.020000000
C    -1.732000000    -4.202000000     3.553000000
H    -1.663000000    -4.293000000     4.639000000
H    -2.377000000    -5.036000000     3.270000000
C    -2.533000000    -2.955000000     3.268000000
C    -2.477000000    -1.861000000     4.167000000
H    -1.906000000    -1.926000000     5.090000000
C    -3.208000000    -2.852000000     2.039000000
C    -3.796000000    -1.661000000     1.692000000
H    -4.270000000    -1.542000000     0.720000000
C    -3.932000000    -0.605000000     2.620000000
O    -4.447000000     0.588000000     2.141000000
C    -3.440000000     1.622000000     1.703000000
C    -3.919000000     2.408000000     0.460000000
C    -3.939000000     3.823000000     0.451000000
H    -4.049000000     4.419000000     1.354000000
C    -4.109000000     1.787000000    -0.769000000
H    -4.103000000     0.703000000    -0.849000000
O    -3.220000000     2.540000000     2.787000000
H    -2.491000000     1.212000000     1.328000000
C    -3.122000000    -0.629000000     3.812000000
C    -2.915000000     0.514000000     4.736000000
H    -2.598000000     0.071000000     5.683000000
H    -3.838000000     1.057000000     4.949000000
C    -1.736000000     1.370000000     4.282000000
C    -0.472000000     1.287000000     4.826000000
H    -0.202000000     0.543000000     5.571000000
C    -1.994000000     2.279000000     3.323000000
C    -1.045000000     3.197000000     2.907000000
H    -1.437000000     4.011000000     2.303000000
C     0.263000000     3.069000000     3.371000000
O     1.201000000     3.881000000     2.809000000
C     2.035000000     3.299000000     1.774000000
C     2.226000000     4.385000000     0.646000000
C     1.261000000     5.416000000     0.481000000
H     0.313000000     5.423000000     1.013000000
C     3.291000000     4.279000000    -0.209000000
H     4.077000000     3.560000000     0.009000000
O     3.298000000     2.890000000     2.336000000
H     1.578000000     2.370000000     1.404000000
C     0.500000000     2.178000000     4.443000000
C     1.949000000     2.013000000     4.869000000
H     1.859000000     1.447000000     5.799000000
H     2.342000000     3.025000000     4.987000000
C     2.762000000     1.122000000     3.889000000
C     3.402000000     1.581000000     2.724000000
C     3.831000000     0.665000000     1.766000000
H     4.232000000     0.947000000     0.797000000
C     3.799000000    -0.660000000     2.068000000
O     4.278000000    -1.534000000     1.106000000
C     3.304000000    -2.327000000     0.484000000
H     2.305000000    -1.920000000     0.697000000
C     3.411000000    -2.309000000    -1.084000000
C     3.212000000    -3.453000000    -1.879000000
H     3.135000000    -4.416000000    -1.381000000
C     3.710000000    -1.079000000    -1.692000000
H     3.799000000    -0.251000000    -0.994000000
C     3.644000000    -0.906000000    -3.038000000
O     3.656000000     0.386000000    -3.485000000
C     3.442000000    -2.059000000    -3.836000000
H     3.349000000    -2.045000000    -4.919000000
C     3.295000000    -3.345000000    -3.288000000
O     3.362000000    -4.445000000    -4.179000000
C     2.674000000    -5.598000000    -4.019000000
C     1.338000000    -5.477000000    -4.019000000
H     0.870000000    -4.522000000    -4.244000000
C     3.379000000    -6.775000000    -3.770000000
H     4.464000000    -6.817000000    -3.824000000
C     2.598000000    -7.948000000    -3.682000000
H     3.109000000    -8.901000000    -3.573000000
C     1.180000000    -7.773000000    -3.581000000
H     0.635000000    -8.687000000    -3.358000000
C     0.581000000    -6.543000000    -3.804000000
O    -0.753000000    -6.471000000    -3.663000000
C    -1.475000000    -5.489000000    -3.122000000
C    -2.188000000    -4.650000000    -3.909000000
H    -2.091000000    -4.754000000    -4.987000000
C    -2.828000000    -3.566000000    -3.316000000
O    -3.442000000    -2.650000000    -4.152000000
C    -4.372000000    -1.695000000    -3.769000000
C    -3.934000000    -0.348000000    -3.524000000
H    -2.925000000    -0.009000000    -3.745000000
C    -5.685000000    -2.054000000    -3.585000000
H    -5.976000000    -3.101000000    -3.544000000
C    -6.697000000    -1.154000000    -3.274000000
H    -7.747000000    -1.414000000    -3.172000000
C    -6.327000000     0.164000000    -3.211000000
H    -7.014000000     0.964000000    -2.947000000
C    -4.926000000     0.575000000    -3.269000000
O    -4.616000000     1.867000000    -3.185000000
C    -4.338000000     2.514000000    -1.959000000
C    -4.133000000     3.864000000    -1.990000000
H    -4.253000000     4.436000000    -2.906000000
C    -3.999000000     4.541000000    -0.751000000
O    -4.010000000     5.879000000    -0.824000000
C    -2.993000000     6.669000000    -0.333000000
C    -1.652000000     6.496000000    -0.694000000
H    -1.351000000     5.625000000    -1.270000000
C    -3.344000000     7.718000000     0.551000000
H    -4.400000000     7.865000000     0.763000000
C    -2.456000000     8.742000000     0.868000000
H    -2.783000000     9.618000000     1.423000000
C    -1.162000000     8.572000000     0.462000000
H    -0.374000000     9.235000000     0.810000000
C    -0.790000000     7.513000000    -0.322000000
O     0.565000000     7.407000000    -0.644000000
C     1.465000000     6.354000000    -0.499000000
C     2.567000000     6.198000000    -1.343000000
H     2.718000000     6.866000000    -2.187000000
C     3.460000000     5.162000000    -1.282000000
O     4.480000000     4.917000000    -2.170000000
C     4.952000000     3.683000000    -2.396000000
C     6.313000000     3.437000000    -2.207000000
H     6.998000000     4.224000000    -1.901000000
C     6.768000000     2.152000000    -2.403000000
H     7.826000000     1.963000000    -2.242000000
C     5.908000000     1.106000000    -2.849000000
H     6.393000000     0.160000000    -3.077000000
C     4.574000000     1.396000000    -3.141000000
C     4.117000000     2.697000000    -2.896000000
H     3.067000000     2.939000000    -3.039000000
O     2.604000000     0.494000000    -6.152000000
H     1.673000000     0.358000000    -5.973000000
H     3.054000000    -0.026000000    -5.486000000
O    -1.570000000     1.227000000    -7.019000000
H    -1.024000000     0.633000000    -6.503000000
H    -2.456000000     1.089000000    -6.684000000
O     3.687000000     2.857000000    -6.660000000
H     3.343000000     2.002000000    -6.401000000
H     3.271000000     3.474000000    -6.058000000
O    -0.149000000    -2.663000000    -9.919000000
H     0.545000000    -3.268000000   -10.182000000
H     0.186000000    -2.243000000    -9.127000000
O     1.255000000     0.375000000    -9.238000000
H     1.600000000    -0.187000000    -8.545000000
H     1.198000000    -0.197000000   -10.004000000
O    -2.611000000    -1.683000000    -6.573000000
H    -1.934000000    -1.788000000    -5.904000000
H    -2.145000000    -1.783000000    -7.403000000
O    -5.119000000     1.771000000    -6.692000000
H    -4.863000000     2.608000000    -6.305000000
H    -6.050000000     1.688000000    -6.488000000
O    -0.867000000    -6.819000000    -7.421000000
H    -1.043000000    -6.608000000    -8.338000000
H    -0.375000000    -6.067000000    -7.092000000
O    -5.625000000    -1.483000000    -6.841000000
H    -4.723000000    -1.389000000    -6.535000000
H    -5.726000000    -2.421000000    -7.003000000
O    -3.586000000    -4.283000000    -9.300000000
H    -3.622000000    -4.327000000    -8.345000000
H    -3.452000000    -3.355000000    -9.492000000
O     0.491000000     2.820000000    -6.962000000
H     0.062000000     1.965000000    -6.967000000
H     0.803000000     2.936000000    -7.860000000
O    -0.119000000    -4.240000000    -6.759000000
H     0.380000000    -3.677000000    -7.351000000
H    -0.356000000    -3.669000000    -6.029000000
O     1.312000000    -1.834000000    -7.687000000
H     2.000000000    -2.411000000    -7.357000000
H     1.103000000    -1.263000000    -6.948000000
O    -3.648000000    -1.521000000    -9.606000000
H    -3.418000000    -0.758000000    -9.075000000
H    -4.416000000    -1.244000000   -10.105000000
O    -1.415000000     3.982000000    -5.275000000
H    -0.774000000     3.523000000    -5.818000000
H    -2.264000000     3.689000000    -5.606000000
O    -0.896000000     2.172000000    -9.423000000
H    -1.335000000     1.879000000    -8.625000000
H    -0.179000000     1.549000000    -9.544000000
O     2.965000000    -3.711000000    -6.778000000
H     3.487000000    -4.325000000    -7.294000000
H     3.028000000    -4.038000000    -5.880000000
O     1.762000000     4.162000000    -4.913000000
H     1.285000000     3.764000000    -5.641000000
H     1.106000000     4.688000000    -4.455000000
O    -4.030000000    -4.034000000    -6.389000000
H    -3.577000000    -3.299000000    -5.977000000
H    -4.332000000    -4.571000000    -5.656000000
