201
-1206.31016
C    -3.442000000    -3.486000000    -2.829000000
H    -4.327000000    -3.476000000    -2.199000000
C    -2.206000000    -3.719000000    -2.213000000
C    -1.060000000    -3.638000000    -2.967000000
H    -0.093000000    -3.540000000    -2.480000000
C    -2.071000000    -3.768000000    -0.691000000
O    -3.353000000    -4.021000000    -0.032000000
H    -1.702000000    -2.802000000    -0.314000000
O    -1.081000000    -4.779000000    -0.295000000
C    -0.153000000    -4.310000000     0.648000000
C     1.126000000    -3.996000000     0.204000000
H     1.353000000    -4.094000000    -0.854000000
C     2.068000000    -3.469000000     1.086000000
O     3.185000000    -3.093000000     0.462000000
C     1.868000000    -3.614000000     2.528000000
C     2.866000000    -3.149000000     3.507000000
H     2.628000000    -3.658000000     4.444000000
C     2.937000000    -1.611000000     3.538000000
C     2.115000000    -0.921000000     4.500000000
H     1.382000000    -1.445000000     5.107000000
H     3.877000000    -3.459000000     3.233000000
C     0.566000000    -3.995000000     2.892000000
H     0.361000000    -4.050000000     3.958000000
C    -0.414000000    -4.408000000     2.039000000
C    -1.860000000    -4.695000000     2.411000000
H    -1.989000000    -5.178000000     3.382000000
H    -2.162000000    -5.568000000     1.827000000
C    -2.804000000    -3.464000000     2.265000000
C    -2.813000000    -2.512000000     3.295000000
H    -2.268000000    -2.771000000     4.199000000
C    -3.545000000    -3.259000000     1.140000000
C    -4.338000000    -2.090000000     1.014000000
H    -4.962000000    -2.026000000     0.127000000
C    -4.354000000    -1.177000000     2.072000000
O    -4.877000000     0.016000000     1.792000000
C    -3.945000000     1.068000000     1.368000000
C    -4.340000000     1.774000000     0.030000000
C    -3.814000000     2.991000000    -0.381000000
H    -3.138000000     3.503000000     0.299000000
C    -5.228000000     1.128000000    -0.863000000
H    -5.538000000     0.108000000    -0.648000000
O    -3.725000000     1.936000000     2.423000000
H    -2.987000000     0.568000000     1.161000000
C    -3.559000000    -1.308000000     3.184000000
C    -3.562000000    -0.192000000     4.303000000
H    -3.528000000    -0.675000000     5.282000000
H    -4.504000000     0.359000000     4.271000000
C    -2.430000000     0.729000000     4.021000000
C    -1.329000000     0.672000000     4.830000000
H    -1.440000000    -0.101000000     5.586000000
C    -2.562000000     1.746000000     3.134000000
C    -1.582000000     2.664000000     3.010000000
H    -1.755000000     3.543000000     2.395000000
C    -0.387000000     2.535000000     3.642000000
O     0.660000000     3.458000000     3.290000000
C     1.754000000     2.954000000     2.497000000
C     2.108000000     3.861000000     1.243000000
C     1.202000000     4.773000000     0.718000000
H     0.209000000     4.845000000     1.154000000
C     3.356000000     3.836000000     0.641000000
H     4.074000000     3.199000000     1.151000000
O     2.854000000     2.574000000     3.316000000
H     1.346000000     2.016000000     2.091000000
C    -0.240000000     1.511000000     4.604000000
C     1.117000000     1.300000000     5.263000000
H     0.993000000     0.739000000     6.192000000
H     1.552000000     2.204000000     5.695000000
C     2.116000000     0.524000000     4.444000000
C     3.014000000     1.204000000     3.545000000
C     3.882000000     0.486000000     2.699000000
H     4.412000000     1.023000000     1.916000000
C     3.764000000    -0.905000000     2.593000000
O     4.449000000    -1.515000000     1.636000000
C     3.638000000    -1.727000000     0.432000000
H     2.773000000    -1.048000000     0.421000000
C     4.395000000    -1.389000000    -0.828000000
C     4.132000000    -2.103000000    -1.936000000
H     3.244000000    -2.728000000    -1.896000000
C     5.461000000    -0.451000000    -0.780000000
H     5.736000000     0.108000000     0.110000000
C     6.211000000    -0.217000000    -1.922000000
O     7.232000000     0.714000000    -1.828000000
C     5.997000000    -1.036000000    -3.031000000
H     6.690000000    -0.831000000    -3.842000000
C     4.885000000    -1.848000000    -3.062000000
O     4.643000000    -2.572000000    -4.228000000
C     3.539000000    -3.394000000    -4.372000000
C     2.283000000    -2.878000000    -4.706000000
H     2.284000000    -1.808000000    -4.898000000
C     3.707000000    -4.722000000    -4.197000000
H     4.630000000    -5.223000000    -3.918000000
C     2.564000000    -5.525000000    -4.180000000
H     2.672000000    -6.560000000    -3.864000000
C     1.325000000    -5.026000000    -4.522000000
H     0.484000000    -5.714000000    -4.536000000
C     1.176000000    -3.719000000    -4.890000000
O    -0.051000000    -3.072000000    -5.081000000
C    -1.148000000    -3.298000000    -4.323000000
C    -2.345000000    -2.859000000    -4.838000000
H    -2.383000000    -2.402000000    -5.823000000
C    -3.479000000    -3.040000000    -4.095000000
O    -4.663000000    -2.800000000    -4.656000000
C    -5.648000000    -2.111000000    -4.010000000
C    -5.548000000    -0.769000000    -3.833000000
H    -4.621000000    -0.218000000    -3.974000000
C    -6.816000000    -2.840000000    -3.710000000
H    -7.016000000    -3.884000000    -3.937000000
C    -7.856000000    -2.067000000    -3.089000000
H    -8.758000000    -2.642000000    -2.896000000
C    -7.733000000    -0.735000000    -2.793000000
H    -8.428000000    -0.155000000    -2.191000000
C    -6.594000000    -0.111000000    -3.223000000
O    -6.524000000     1.194000000    -2.915000000
C    -5.562000000     1.828000000    -2.074000000
C    -5.193000000     3.161000000    -2.331000000
H    -5.474000000     3.653000000    -3.259000000
C    -4.223000000     3.682000000    -1.509000000
O    -3.713000000     4.921000000    -1.816000000
C    -2.881000000     5.657000000    -0.958000000
C    -1.601000000     5.782000000    -1.406000000
H    -1.332000000     5.381000000    -2.380000000
C    -3.285000000     6.274000000     0.240000000
H    -4.312000000     6.235000000     0.594000000
C    -2.349000000     6.861000000     1.082000000
H    -2.664000000     7.328000000     2.012000000
C    -1.038000000     6.981000000     0.645000000
H    -0.253000000     7.429000000     1.250000000
C    -0.672000000     6.394000000    -0.584000000
O     0.624000000     6.535000000    -0.901000000
C     1.561000000     5.587000000    -0.389000000
C     2.840000000     5.452000000    -0.991000000
H     3.168000000     6.204000000    -1.705000000
C     3.756000000     4.708000000    -0.389000000
O     5.172000000     4.832000000    -0.699000000
C     6.069000000     3.856000000    -0.314000000
C     7.119000000     4.122000000     0.545000000
H     7.190000000     5.039000000     1.125000000
C     8.177000000     3.278000000     0.625000000
H     9.070000000     3.563000000     1.176000000
C     8.205000000     2.129000000    -0.157000000
H     9.025000000     1.446000000     0.048000000
C     7.203000000     1.880000000    -1.048000000
C     6.118000000     2.759000000    -1.170000000
H     5.399000000     2.681000000    -1.981000000
O     0.881000000     3.294000000    -6.683000000
H     1.409000000     2.684000000    -7.198000000
H     0.675000000     2.815000000    -5.881000000
O     7.484000000     2.048000000    -4.883000000
H     7.719000000     2.372000000    -4.013000000
H     6.640000000     2.458000000    -5.072000000
O    -3.386000000     6.422000000    -4.104000000
H    -3.028000000     5.708000000    -3.576000000
H    -3.761000000     7.027000000    -3.465000000
O     0.281000000     8.149000000    -5.115000000
H     0.373000000     7.237000000    -4.838000000
H    -0.661000000     8.314000000    -5.083000000
O     0.037000000     5.640000000    -4.681000000
H    -0.413000000     5.605000000    -5.525000000
H     0.022000000     4.736000000    -4.364000000
O     4.080000000    -1.968000000    -8.222000000
H     4.965000000    -2.018000000    -7.861000000
H     3.639000000    -1.311000000    -7.684000000
O     4.773000000     0.285000000    -5.970000000
H     5.007000000    -0.590000000    -5.659000000
H     3.833000000     0.233000000    -6.144000000
O    -4.914000000     4.364000000    -5.669000000
H    -4.775000000     5.169000000    -5.170000000
H    -4.036000000     4.002000000    -5.789000000
O    -1.170000000     1.483000000    -6.725000000
H    -0.527000000     1.192000000    -6.077000000
H    -0.812000000     1.192000000    -7.564000000
O    -2.114000000     4.111000000    -8.730000000
H    -2.125000000     3.559000000    -7.948000000
H    -2.919000000     3.884000000    -9.195000000
O    -0.866000000     5.986000000    -7.458000000
H    -1.408000000     5.316000000    -7.873000000
H     0.023000000     5.636000000    -7.501000000
O    -2.302000000     3.371000000    -5.041000000
H    -2.418000000     2.528000000    -5.478000000
H    -1.353000000     3.479000000    -4.976000000
O     0.385000000     0.480000000    -8.727000000
H     0.460000000     0.644000000    -9.667000000
H    -0.290000000    -0.195000000    -8.655000000
O    -4.353000000    -0.216000000    -7.442000000
H    -3.661000000    -0.150000000    -6.784000000
H    -3.886000000    -0.260000000    -8.276000000
O     0.336000000     4.161000000    -9.940000000
H    -0.533000000     3.931000000    -9.613000000
H     0.913000000     4.055000000    -9.184000000
O     2.271000000     0.149000000    -6.723000000
H     1.662000000     0.358000000    -6.015000000
H     1.715000000     0.051000000    -7.496000000
O     2.909000000     6.236000000    -4.878000000
H     1.965000000     6.383000000    -4.820000000
H     3.014000000     5.296000000    -4.728000000
O     3.010000000     3.655000000    -3.567000000
H     2.115000000     3.351000000    -3.717000000
H     3.229000000     3.331000000    -2.693000000
O     5.050000000     2.982000000    -5.548000000
H     4.307000000     3.283000000    -5.024000000
H     4.935000000     2.034000000    -5.603000000
