201
-1222.51674
C    -3.886000000    -3.294000000    -2.182000000
H    -4.436000000    -2.550000000    -1.610000000
C    -2.860000000    -3.943000000    -1.487000000
C    -2.177000000    -4.944000000    -2.137000000
H    -1.293000000    -5.375000000    -1.674000000
C    -2.509000000    -3.600000000    -0.047000000
O    -3.765000000    -3.278000000     0.602000000
H    -1.893000000    -2.689000000    -0.058000000
O    -1.836000000    -4.712000000     0.685000000
C    -0.805000000    -4.458000000     1.467000000
C     0.434000000    -4.357000000     0.880000000
H     0.473000000    -4.725000000    -0.142000000
C     1.535000000    -3.865000000     1.613000000
O     2.699000000    -3.653000000     0.937000000
C     1.356000000    -3.529000000     2.978000000
C     2.541000000    -3.044000000     3.731000000
H     2.275000000    -3.184000000     4.780000000
C     2.834000000    -1.527000000     3.520000000
C     2.156000000    -0.635000000     4.336000000
H     1.609000000    -1.109000000     5.147000000
H     3.317000000    -3.755000000     3.442000000
C     0.054000000    -3.492000000     3.496000000
H    -0.224000000    -3.068000000     4.458000000
C    -1.049000000    -3.962000000     2.760000000
C    -2.462000000    -4.009000000     3.326000000
H    -2.438000000    -4.110000000     4.413000000
H    -3.031000000    -4.874000000     2.978000000
C    -3.093000000    -2.653000000     2.917000000
C    -2.783000000    -1.614000000     3.776000000
H    -2.245000000    -1.849000000     4.691000000
C    -3.761000000    -2.410000000     1.676000000
C    -4.227000000    -1.144000000     1.438000000
H    -4.728000000    -0.946000000     0.494000000
C    -4.025000000    -0.120000000     2.318000000
O    -4.460000000     1.066000000     1.768000000
C    -3.435000000     1.979000000     1.387000000
C    -3.668000000     2.692000000     0.063000000
C    -3.241000000     4.030000000    -0.166000000
H    -3.012000000     4.709000000     0.652000000
C    -3.866000000     1.917000000    -1.093000000
H    -4.147000000     0.879000000    -0.930000000
O    -3.132000000     2.921000000     2.491000000
H    -2.533000000     1.394000000     1.156000000
C    -3.256000000    -0.287000000     3.495000000
C    -3.122000000     0.738000000     4.589000000
H    -2.940000000     0.315000000     5.580000000
H    -4.064000000     1.255000000     4.785000000
C    -1.993000000     1.683000000     4.201000000
C    -0.749000000     1.476000000     4.796000000
H    -0.555000000     0.767000000     5.597000000
C    -2.051000000     2.682000000     3.225000000
C    -0.953000000     3.419000000     2.856000000
H    -0.897000000     4.033000000     1.961000000
C     0.277000000     3.184000000     3.426000000
O     1.387000000     3.688000000     2.778000000
C     2.204000000     2.955000000     1.884000000
C     2.732000000     3.768000000     0.798000000
C     2.080000000     4.959000000     0.552000000
H     1.136000000     5.154000000     1.055000000
C     3.924000000     3.470000000     0.060000000
H     4.543000000     2.672000000     0.462000000
O     3.284000000     2.439000000     2.681000000
H     1.615000000     2.114000000     1.490000000
C     0.373000000     2.195000000     4.390000000
C     1.713000000     1.796000000     4.957000000
H     1.577000000     1.418000000     5.972000000
H     2.332000000     2.695000000     4.990000000
C     2.342000000     0.748000000     4.078000000
C     3.224000000     1.166000000     3.021000000
C     3.917000000     0.241000000     2.249000000
H     4.524000000     0.543000000     1.399000000
C     3.626000000    -1.101000000     2.487000000
O     4.104000000    -1.838000000     1.382000000
C     3.128000000    -2.331000000     0.484000000
H     2.242000000    -1.685000000     0.574000000
C     3.628000000    -2.448000000    -0.920000000
C     2.792000000    -2.952000000    -1.924000000
H     1.896000000    -3.534000000    -1.728000000
C     4.776000000    -1.800000000    -1.317000000
H     5.469000000    -1.313000000    -0.635000000
C     5.060000000    -1.588000000    -2.664000000
O     6.080000000    -0.773000000    -3.101000000
C     4.229000000    -2.082000000    -3.631000000
H     4.499000000    -1.936000000    -4.674000000
C     3.063000000    -2.761000000    -3.267000000
O     2.178000000    -3.192000000    -4.198000000
C     1.689000000    -4.429000000    -4.143000000
C     0.313000000    -4.602000000    -4.134000000
H    -0.325000000    -3.723000000    -4.165000000
C     2.528000000    -5.503000000    -4.164000000
H     3.587000000    -5.284000000    -4.274000000
C     1.896000000    -6.786000000    -4.022000000
H     2.571000000    -7.634000000    -3.936000000
C     0.521000000    -6.997000000    -3.814000000
H     0.104000000    -7.998000000    -3.735000000
C    -0.324000000    -5.852000000    -4.086000000
O    -1.710000000    -6.103000000    -4.125000000
C    -2.483000000    -5.271000000    -3.495000000
C    -3.500000000    -4.545000000    -4.140000000
H    -3.691000000    -4.757000000    -5.188000000
C    -4.107000000    -3.452000000    -3.511000000
O    -5.163000000    -2.781000000    -4.171000000
C    -5.604000000    -1.556000000    -3.758000000
C    -4.790000000    -0.477000000    -3.883000000
H    -3.795000000    -0.612000000    -4.299000000
C    -6.856000000    -1.510000000    -3.166000000
H    -7.474000000    -2.404000000    -3.196000000
C    -7.305000000    -0.259000000    -2.587000000
H    -8.258000000    -0.166000000    -2.072000000
C    -6.489000000     0.842000000    -2.738000000
H    -6.712000000     1.828000000    -2.338000000
C    -5.222000000     0.728000000    -3.362000000
O    -4.383000000     1.785000000    -3.439000000
C    -3.854000000     2.483000000    -2.336000000
C    -3.509000000     3.854000000    -2.477000000
H    -3.693000000     4.196000000    -3.492000000
C    -3.023000000     4.594000000    -1.455000000
O    -2.718000000     5.905000000    -1.694000000
C    -1.784000000     6.601000000    -0.855000000
C    -0.424000000     6.584000000    -1.156000000
H    -0.050000000     6.064000000    -2.034000000
C    -2.211000000     7.258000000     0.273000000
H    -3.271000000     7.248000000     0.511000000
C    -1.310000000     7.886000000     1.114000000
H    -1.557000000     8.564000000     1.927000000
C     0.068000000     7.845000000     0.801000000
H     0.827000000     8.244000000     1.469000000
C     0.485000000     7.244000000    -0.356000000
O     1.868000000     7.073000000    -0.606000000
C     2.493000000     5.839000000    -0.429000000
C     3.559000000     5.394000000    -1.269000000
H     3.756000000     5.992000000    -2.156000000
C     4.252000000     4.191000000    -1.074000000
O     5.312000000     3.943000000    -1.866000000
C     6.092000000     2.753000000    -1.830000000
C     7.273000000     2.687000000    -1.075000000
H     7.672000000     3.603000000    -0.645000000
C     7.945000000     1.493000000    -0.974000000
H     8.855000000     1.573000000    -0.385000000
C     7.518000000     0.326000000    -1.593000000
H     8.043000000    -0.625000000    -1.576000000
C     6.361000000     0.389000000    -2.400000000
C     5.644000000     1.560000000    -2.436000000
H     4.720000000     1.671000000    -2.998000000
O     0.512000000     2.026000000    -7.640000000
H    -0.025000000     2.810000000    -7.525000000
H     0.278000000     1.465000000    -6.900000000
O     2.940000000     0.420000000    -4.315000000
H     2.060000000     0.568000000    -4.660000000
H     2.825000000    -0.256000000    -3.647000000
O     2.494000000     2.637000000    -9.418000000
H     1.896000000     2.428000000    -8.700000000
H     2.833000000     3.506000000    -9.202000000
O    -1.175000000     4.070000000    -7.754000000
H    -1.379000000     4.143000000    -8.686000000
H    -0.982000000     4.967000000    -7.480000000
O     4.424000000     0.147000000    -9.051000000
H     3.792000000     0.865000000    -9.087000000
H     4.711000000     0.126000000    -8.138000000
O    -1.483000000     5.321000000    -5.104000000
H    -1.055000000     6.015000000    -4.603000000
H    -0.933000000     4.550000000    -4.962000000
O    -3.308000000    -0.171000000    -7.202000000
H    -3.144000000     0.637000000    -6.716000000
H    -4.221000000    -0.099000000    -7.483000000
O     4.248000000     5.745000000    -5.565000000
H     4.629000000     6.512000000    -5.137000000
H     3.657000000     5.374000000    -4.910000000
O     3.472000000     4.770000000    -8.213000000
H     3.318000000     5.001000000    -7.297000000
H     3.675000000     5.603000000    -8.639000000
O    -2.496000000     2.266000000    -5.968000000
H    -1.761000000     1.938000000    -5.451000000
H    -2.111000000     2.937000000    -6.533000000
O     1.065000000     6.927000000    -4.448000000
H     1.364000000     6.031000000    -4.607000000
H     1.176000000     7.369000000    -5.289000000
O    -5.309000000     3.488000000    -5.465000000
H    -4.955000000     3.754000000    -6.314000000
H    -4.647000000     2.898000000    -5.104000000
O    -3.599000000     5.638000000    -6.817000000
H    -3.265000000     5.693000000    -7.712000000
H    -2.852000000     5.336000000    -6.300000000
O    -0.612000000     0.534000000    -9.887000000
H    -1.281000000     1.214000000    -9.810000000
H    -0.066000000     0.647000000    -9.109000000
O    -1.255000000    -1.992000000    -6.538000000
H    -0.656000000    -1.447000000    -6.027000000
H    -1.760000000    -1.368000000    -7.060000000
O     0.695000000    -3.365000000    -8.134000000
H     0.231000000    -2.772000000    -7.543000000
H     0.060000000    -4.053000000    -8.330000000
O     2.488000000     3.994000000    -4.178000000
H     1.585000000     3.675000000    -4.179000000
H     3.022000000     3.201000000    -4.236000000
O     4.620000000     0.700000000    -6.447000000
H     4.963000000     1.589000000    -6.358000000
H     3.917000000     0.648000000    -5.800000000
O    -2.718000000    -4.143000000    -7.620000000
H    -2.967000000    -3.852000000    -8.497000000
H    -2.121000000    -3.465000000    -7.303000000
