201
-1262.39147
C    -3.016000000    -3.053000000    -2.425000000
H    -3.910000000    -2.801000000    -1.860000000
C    -2.017000000    -3.725000000    -1.728000000
C    -0.960000000    -4.323000000    -2.509000000
H    -0.182000000    -4.925000000    -2.046000000
C    -1.955000000    -3.736000000    -0.194000000
O    -3.269000000    -3.821000000     0.450000000
H    -1.465000000    -2.784000000     0.059000000
O    -1.143000000    -4.809000000     0.315000000
C    -0.200000000    -4.501000000     1.251000000
C     1.104000000    -4.215000000     0.801000000
H     1.381000000    -4.469000000    -0.219000000
C     2.077000000    -3.673000000     1.677000000
O     3.321000000    -3.429000000     1.143000000
C     1.716000000    -3.387000000     2.993000000
C     2.698000000    -2.782000000     3.929000000
H     2.339000000    -2.863000000     4.957000000
C     2.939000000    -1.286000000     3.771000000
C     2.267000000    -0.401000000     4.583000000
H     1.444000000    -0.806000000     5.166000000
H     3.610000000    -3.383000000     3.892000000
C     0.409000000    -3.595000000     3.425000000
H     0.107000000    -3.342000000     4.439000000
C    -0.546000000    -4.149000000     2.570000000
C    -1.914000000    -4.417000000     3.113000000
H    -1.773000000    -4.670000000     4.166000000
H    -2.243000000    -5.353000000     2.658000000
C    -2.737000000    -3.125000000     2.805000000
C    -2.765000000    -2.050000000     3.713000000
H    -2.301000000    -2.192000000     4.685000000
C    -3.414000000    -2.991000000     1.542000000
C    -4.082000000    -1.778000000     1.225000000
H    -4.508000000    -1.641000000     0.235000000
C    -4.093000000    -0.773000000     2.154000000
O    -4.654000000     0.452000000     1.918000000
C    -3.780000000     1.536000000     1.449000000
C    -4.284000000     2.150000000     0.168000000
C    -3.745000000     3.366000000    -0.308000000
H    -3.088000000     3.974000000     0.308000000
C    -5.082000000     1.480000000    -0.725000000
H    -5.498000000     0.520000000    -0.430000000
O    -3.660000000     2.539000000     2.555000000
H    -2.788000000     1.111000000     1.238000000
C    -3.442000000    -0.844000000     3.392000000
C    -3.375000000     0.274000000     4.413000000
H    -3.270000000    -0.199000000     5.391000000
H    -4.309000000     0.840000000     4.411000000
C    -2.263000000     1.318000000     4.176000000
C    -1.071000000     1.170000000     4.905000000
H    -0.994000000     0.287000000     5.535000000
C    -2.485000000     2.369000000     3.332000000
C    -1.431000000     3.260000000     3.035000000
H    -1.578000000     4.084000000     2.341000000
C    -0.149000000     2.979000000     3.589000000
O     0.894000000     3.844000000     3.203000000
C     1.800000000     3.170000000     2.316000000
C     2.139000000     3.968000000     1.086000000
C     1.428000000     5.173000000     0.857000000
H     0.688000000     5.491000000     1.586000000
C     3.027000000     3.510000000     0.100000000
H     3.556000000     2.561000000     0.133000000
O     2.967000000     2.766000000     3.020000000
H     1.277000000     2.292000000     1.908000000
C     0.000000000     2.001000000     4.600000000
C     1.302000000     1.819000000     5.275000000
H     1.244000000     1.391000000     6.278000000
H     1.755000000     2.791000000     5.481000000
C     2.306000000     0.992000000     4.440000000
C     3.044000000     1.472000000     3.424000000
C     3.868000000     0.671000000     2.665000000
H     4.415000000     1.121000000     1.840000000
C     3.774000000    -0.736000000     2.753000000
O     4.446000000    -1.592000000     1.920000000
C     3.719000000    -2.091000000     0.825000000
H     2.834000000    -1.484000000     0.582000000
C     4.489000000    -2.075000000    -0.523000000
C     4.056000000    -2.810000000    -1.608000000
H     3.344000000    -3.624000000    -1.496000000
C     5.491000000    -1.121000000    -0.790000000
H     5.834000000    -0.536000000     0.059000000
C     6.020000000    -0.897000000    -2.050000000
O     7.012000000    -0.007000000    -2.087000000
C     5.604000000    -1.607000000    -3.149000000
H     6.008000000    -1.487000000    -4.151000000
C     4.624000000    -2.555000000    -2.920000000
O     4.315000000    -3.351000000    -4.006000000
C     3.415000000    -4.359000000    -3.961000000
C     2.084000000    -4.114000000    -4.307000000
H     1.787000000    -3.118000000    -4.627000000
C     3.858000000    -5.609000000    -3.575000000
H     4.890000000    -5.843000000    -3.330000000
C     2.940000000    -6.692000000    -3.528000000
H     3.340000000    -7.639000000    -3.175000000
C     1.610000000    -6.450000000    -3.921000000
H     0.857000000    -7.231000000    -3.986000000
C     1.170000000    -5.197000000    -4.337000000
O    -0.119000000    -4.968000000    -4.662000000
C    -0.977000000    -4.308000000    -3.876000000
C    -2.022000000    -3.688000000    -4.503000000
H    -1.967000000    -3.532000000    -5.577000000
C    -3.028000000    -2.996000000    -3.827000000
O    -4.112000000    -2.422000000    -4.492000000
C    -5.227000000    -1.921000000    -3.927000000
C    -5.218000000    -0.565000000    -3.582000000
H    -4.351000000     0.057000000    -3.788000000
C    -6.419000000    -2.686000000    -3.754000000
H    -6.488000000    -3.663000000    -4.226000000
C    -7.527000000    -2.022000000    -3.334000000
H    -8.520000000    -2.442000000    -3.467000000
C    -7.484000000    -0.688000000    -2.860000000
H    -8.366000000    -0.128000000    -2.560000000
C    -6.303000000     0.035000000    -2.992000000
O    -6.322000000     1.362000000    -2.830000000
C    -5.419000000     2.016000000    -1.967000000
C    -4.896000000     3.261000000    -2.425000000
H    -5.152000000     3.692000000    -3.389000000
C    -4.057000000     3.922000000    -1.550000000
O    -3.539000000     5.094000000    -1.923000000
C    -2.859000000     5.945000000    -1.123000000
C    -1.475000000     6.019000000    -1.322000000
H    -1.052000000     5.333000000    -2.051000000
C    -3.417000000     6.799000000    -0.225000000
H    -4.495000000     6.815000000    -0.086000000
C    -2.682000000     7.751000000     0.488000000
H    -3.071000000     8.376000000     1.288000000
C    -1.293000000     7.738000000     0.341000000
H    -0.645000000     8.448000000     0.848000000
C    -0.667000000     6.894000000    -0.595000000
O     0.693000000     6.886000000    -0.638000000
C     1.508000000     5.842000000    -0.409000000
C     2.317000000     5.317000000    -1.366000000
H     2.280000000     5.796000000    -2.341000000
C     3.149000000     4.201000000    -1.139000000
O     3.778000000     3.646000000    -2.267000000
C     5.128000000     3.149000000    -2.038000000
C     6.125000000     4.014000000    -1.630000000
H     5.904000000     5.078000000    -1.589000000
C     7.416000000     3.587000000    -1.526000000
H     8.229000000     4.279000000    -1.325000000
C     7.754000000     2.222000000    -1.621000000
H     8.783000000     1.871000000    -1.620000000
C     6.759000000     1.342000000    -1.834000000
C     5.474000000     1.799000000    -2.236000000
H     4.716000000     1.157000000    -2.678000000
O    -0.083000000     1.664000000    -6.976000000
H     0.328000000     1.495000000    -6.128000000
H    -0.677000000     2.397000000    -6.812000000
O     5.005000000    -0.690000000    -6.955000000
H     4.379000000    -0.148000000    -6.474000000
H     5.851000000    -0.265000000    -6.810000000
O    -0.102000000     8.016000000    -4.232000000
H    -0.114000000     8.568000000    -5.014000000
H     0.801000000     7.704000000    -4.173000000
O     0.830000000    -3.258000000    -7.175000000
H     1.785000000    -3.194000000    -7.142000000
H     0.522000000    -2.518000000    -6.651000000
O     3.910000000     5.223000000    -7.680000000
H     3.380000000     6.019000000    -7.682000000
H     4.497000000     5.323000000    -8.429000000
O     2.477000000     0.363000000    -6.471000000
H     2.146000000     0.478000000    -5.580000000
H     2.051000000    -0.435000000    -6.783000000
O    -2.507000000     2.299000000    -4.570000000
H    -1.723000000     2.678000000    -4.172000000
H    -2.332000000     1.359000000    -4.596000000
O     6.616000000     4.243000000    -5.331000000
H     6.499000000     4.625000000    -6.201000000
H     5.745000000     3.930000000    -5.087000000
O    -1.692000000     4.561000000    -7.397000000
H    -1.385000000     4.650000000    -6.495000000
H    -2.634000000     4.414000000    -7.316000000
O    -1.590000000     7.500000000    -7.043000000
H    -2.532000000     7.519000000    -7.211000000
H    -1.424000000     6.616000000    -6.714000000
O    -1.463000000     5.156000000    -4.808000000
H    -0.935000000     4.515000000    -4.331000000
H    -1.276000000     5.989000000    -4.375000000
O    -2.095000000    -0.351000000    -5.788000000
H    -2.051000000     0.170000000    -6.590000000
H    -2.591000000    -1.131000000    -6.036000000
O    -4.919000000     2.364000000    -5.994000000
H    -4.102000000     2.555000000    -5.533000000
H    -4.736000000     1.563000000    -6.484000000
O     0.074000000     3.832000000    -9.245000000
H    -0.380000000     4.203000000    -8.488000000
H     0.979000000     3.725000000    -8.952000000
O     0.352000000    -1.265000000    -5.350000000
H     0.594000000    -0.402000000    -5.014000000
H    -0.591000000    -1.205000000    -5.507000000
O     2.391000000     1.327000000    -9.173000000
H     2.747000000     1.128000000    -8.307000000
H     1.442000000     1.271000000    -9.061000000
O     2.798000000     7.138000000    -5.077000000
H     2.462000000     6.254000000    -4.927000000
H     3.624000000     7.005000000    -5.542000000
O     2.012000000     4.645000000    -4.642000000
H     1.249000000     4.188000000    -4.286000000
H     2.653000000     3.952000000    -4.800000000
O     4.036000000     3.258000000    -5.816000000
H     3.973000000     3.890000000    -6.532000000
H     3.759000000     2.428000000    -6.204000000
