201
-1253.41943
C    -3.630000000    -3.416000000    -1.536000000
H    -4.173000000    -2.747000000    -0.874000000
C    -2.475000000    -4.080000000    -1.114000000
C    -1.681000000    -4.810000000    -2.024000000
H    -0.717000000    -5.245000000    -1.770000000
C    -1.961000000    -3.801000000     0.318000000
O    -3.095000000    -3.680000000     1.206000000
H    -1.418000000    -2.845000000     0.354000000
O    -1.193000000    -4.936000000     0.762000000
C    -0.128000000    -4.667000000     1.529000000
C     1.096000000    -4.669000000     0.909000000
H     1.191000000    -5.016000000    -0.117000000
C     2.166000000    -4.087000000     1.525000000
O     3.285000000    -3.931000000     0.797000000
C     2.075000000    -3.528000000     2.807000000
C     3.264000000    -2.884000000     3.411000000
H     3.108000000    -2.955000000     4.489000000
C     3.335000000    -1.387000000     3.068000000
C     2.844000000    -0.450000000     3.970000000
H     2.446000000    -0.801000000     4.918000000
H     4.199000000    -3.418000000     3.229000000
C     0.840000000    -3.552000000     3.448000000
H     0.644000000    -3.264000000     4.477000000
C    -0.268000000    -4.184000000     2.854000000
C    -1.587000000    -4.131000000     3.615000000
H    -1.267000000    -4.224000000     4.655000000
H    -2.211000000    -5.008000000     3.431000000
C    -2.346000000    -2.829000000     3.290000000
C    -2.207000000    -1.697000000     4.158000000
H    -1.623000000    -1.837000000     5.063000000
C    -3.081000000    -2.693000000     2.134000000
C    -3.600000000    -1.463000000     1.809000000
H    -3.987000000    -1.364000000     0.798000000
C    -3.433000000    -0.362000000     2.617000000
O    -3.946000000     0.765000000     2.157000000
C    -2.975000000     1.801000000     1.720000000
C    -3.638000000     2.531000000     0.440000000
C    -3.169000000     3.792000000    -0.004000000
H    -2.474000000     4.382000000     0.588000000
C    -4.603000000     1.869000000    -0.319000000
H    -4.829000000     0.841000000    -0.047000000
O    -2.812000000     2.762000000     2.737000000
H    -2.046000000     1.279000000     1.446000000
C    -2.768000000    -0.481000000     3.856000000
C    -2.546000000     0.724000000     4.778000000
H    -2.260000000     0.358000000     5.766000000
H    -3.437000000     1.350000000     4.863000000
C    -1.418000000     1.672000000     4.432000000
C    -0.068000000     1.451000000     4.852000000
H     0.247000000     0.606000000     5.458000000
C    -1.591000000     2.608000000     3.353000000
C    -0.552000000     3.417000000     2.954000000
H    -0.812000000     4.206000000     2.253000000
C     0.770000000     3.255000000     3.466000000
O     1.823000000     3.972000000     2.939000000
C     2.359000000     3.309000000     1.803000000
C     2.512000000     4.306000000     0.678000000
C     1.655000000     5.422000000     0.440000000
H     0.910000000     5.684000000     1.187000000
C     3.490000000     3.997000000    -0.247000000
H     4.228000000     3.201000000    -0.190000000
O     3.639000000     2.591000000     2.072000000
H     1.634000000     2.593000000     1.387000000
C     0.999000000     2.264000000     4.378000000
C     2.405000000     1.906000000     4.749000000
H     2.506000000     1.448000000     5.735000000
H     3.073000000     2.769000000     4.779000000
C     2.995000000     0.932000000     3.738000000
C     3.646000000     1.282000000     2.496000000
C     4.183000000     0.408000000     1.640000000
H     4.648000000     0.740000000     0.715000000
C     4.033000000    -0.937000000     1.869000000
O     4.500000000    -1.872000000     0.989000000
C     3.513000000    -2.636000000     0.266000000
H     2.569000000    -2.081000000     0.367000000
C     3.831000000    -2.527000000    -1.189000000
C     3.535000000    -3.583000000    -2.057000000
H     3.229000000    -4.524000000    -1.607000000
C     4.163000000    -1.299000000    -1.769000000
H     4.183000000    -0.428000000    -1.119000000
C     4.242000000    -1.127000000    -3.140000000
O     4.157000000     0.139000000    -3.650000000
C     4.078000000    -2.214000000    -4.010000000
H     3.937000000    -2.151000000    -5.086000000
C     3.625000000    -3.380000000    -3.418000000
O     3.330000000    -4.438000000    -4.223000000
C     2.315000000    -5.316000000    -4.051000000
C     0.919000000    -5.004000000    -4.110000000
H     0.647000000    -3.959000000    -4.237000000
C     2.669000000    -6.657000000    -3.851000000
H     3.718000000    -6.899000000    -3.698000000
C     1.686000000    -7.681000000    -3.781000000
H     2.026000000    -8.714000000    -3.779000000
C     0.365000000    -7.359000000    -3.873000000
H    -0.418000000    -8.112000000    -3.853000000
C    -0.050000000    -6.025000000    -4.096000000
O    -1.406000000    -5.658000000    -4.273000000
C    -2.142000000    -4.924000000    -3.323000000
C    -3.245000000    -4.221000000    -3.738000000
H    -3.510000000    -4.203000000    -4.792000000
C    -3.980000000    -3.411000000    -2.863000000
O    -5.104000000    -2.762000000    -3.369000000
C    -5.966000000    -1.856000000    -2.738000000
C    -5.674000000    -0.491000000    -2.879000000
H    -4.855000000    -0.078000000    -3.462000000
C    -6.985000000    -2.282000000    -1.903000000
H    -7.084000000    -3.350000000    -1.726000000
C    -7.781000000    -1.338000000    -1.187000000
H    -8.617000000    -1.537000000    -0.521000000
C    -7.464000000     0.015000000    -1.339000000
H    -7.932000000     0.782000000    -0.727000000
C    -6.393000000     0.464000000    -2.193000000
O    -6.001000000     1.762000000    -2.330000000
C    -5.156000000     2.435000000    -1.473000000
C    -4.753000000     3.708000000    -1.877000000
H    -5.254000000     4.173000000    -2.722000000
C    -3.755000000     4.318000000    -1.103000000
O    -3.392000000     5.546000000    -1.571000000
C    -2.527000000     6.478000000    -0.978000000
C    -1.169000000     6.442000000    -1.156000000
H    -0.730000000     5.586000000    -1.662000000
C    -3.124000000     7.523000000    -0.246000000
H    -4.193000000     7.516000000    -0.048000000
C    -2.288000000     8.606000000     0.274000000
H    -2.716000000     9.489000000     0.741000000
C    -0.942000000     8.510000000     0.122000000
H    -0.313000000     9.350000000     0.408000000
C    -0.369000000     7.442000000    -0.606000000
O     1.058000000     7.421000000    -0.766000000
C     1.840000000     6.336000000    -0.582000000
C     2.862000000     6.028000000    -1.486000000
H     3.021000000     6.745000000    -2.287000000
C     3.667000000     4.887000000    -1.319000000
O     4.752000000     4.756000000    -2.241000000
C     5.249000000     3.485000000    -2.590000000
C     6.622000000     3.320000000    -2.757000000
H     7.246000000     4.136000000    -2.400000000
C     7.253000000     2.171000000    -3.169000000
H     8.340000000     2.146000000    -3.192000000
C     6.425000000     1.074000000    -3.450000000
H     6.865000000     0.112000000    -3.698000000
C     5.020000000     1.228000000    -3.312000000
C     4.361000000     2.392000000    -2.882000000
H     3.276000000     2.434000000    -2.826000000
O    -3.965000000    -2.130000000    -7.998000000
H    -3.498000000    -1.337000000    -7.733000000
H    -3.712000000    -2.263000000    -8.911000000
O     1.830000000     0.035000000    -7.158000000
H     1.204000000     0.423000000    -6.547000000
H     1.760000000    -0.908000000    -7.006000000
O    -5.473000000     0.460000000    -7.968000000
H    -5.622000000     1.397000000    -7.840000000
H    -4.770000000     0.243000000    -7.356000000
O     2.652000000     0.830000000    -9.423000000
H     2.272000000     0.494000000    -8.611000000
H     2.077000000     0.498000000   -10.112000000
O    -2.678000000     5.563000000    -8.354000000
H    -2.921000000     6.015000000    -9.162000000
H    -2.756000000     4.633000000    -8.568000000
O    -4.317000000     1.242000000    -5.329000000
H    -3.724000000     1.991000000    -5.265000000
H    -3.740000000     0.491000000    -5.469000000
O    -2.974000000     3.561000000    -5.636000000
H    -2.044000000     3.422000000    -5.456000000
H    -3.102000000     3.210000000    -6.518000000
O    -4.151000000     6.102000000    -5.670000000
H    -5.027000000     6.181000000    -5.292000000
H    -3.805000000     5.289000000    -5.302000000
O    -0.854000000    -3.237000000    -6.543000000
H    -1.198000000    -4.109000000    -6.735000000
H     0.095000000    -3.332000000    -6.613000000
O    -0.214000000     8.033000000    -4.456000000
H    -0.331000000     7.089000000    -4.564000000
H    -1.034000000     8.413000000    -4.771000000
O    -0.270000000     1.956000000    -8.165000000
H     0.474000000     2.246000000    -8.693000000
H     0.126000000     1.575000000    -7.382000000
O    -6.583000000     2.484000000    -5.329000000
H    -5.736000000     2.055000000    -5.206000000
H    -6.599000000     2.719000000    -6.257000000
O    -0.100000000     5.155000000    -7.686000000
H    -0.957000000     4.955000000    -8.062000000
H    -0.282000000     5.801000000    -7.004000000
O     1.610000000     3.577000000    -6.266000000
H     0.985000000     3.246000000    -5.622000000
H     1.066000000     3.956000000    -6.956000000
O    -2.219000000    -0.778000000    -6.136000000
H    -1.499000000    -0.192000000    -5.906000000
H    -1.792000000    -1.601000000    -6.374000000
O    -2.824000000     2.996000000    -8.592000000
H    -2.014000000     2.553000000    -8.336000000
H    -3.192000000     2.443000000    -9.280000000
O    -0.782000000     5.320000000    -4.805000000
H    -0.480000000     4.413000000    -4.755000000
H    -1.730000000     5.252000000    -4.918000000
O     4.029000000     3.346000000    -6.962000000
H     3.813000000     2.580000000    -7.493000000
H     3.185000000     3.658000000    -6.636000000
O     1.739000000    -3.258000000    -7.056000000
H     2.299000000    -2.958000000    -7.771000000
H     2.214000000    -3.995000000    -6.672000000
