201
-1233.26104
C    -3.525000000    -2.397000000    -1.059000000
H    -3.931000000    -1.691000000    -0.340000000
C    -2.646000000    -3.442000000    -0.647000000
C    -2.175000000    -4.349000000    -1.626000000
H    -1.445000000    -5.126000000    -1.415000000
C    -2.175000000    -3.554000000     0.781000000
O    -3.258000000    -3.423000000     1.773000000
H    -1.551000000    -2.657000000     0.905000000
O    -1.271000000    -4.700000000     1.023000000
C    -0.053000000    -4.418000000     1.528000000
C     1.067000000    -4.492000000     0.696000000
H     0.973000000    -4.925000000    -0.296000000
C     2.320000000    -4.100000000     1.099000000
O     3.270000000    -3.993000000     0.105000000
C     2.518000000    -3.653000000     2.363000000
C     3.823000000    -3.075000000     2.808000000
H     4.038000000    -3.277000000     3.859000000
C     3.964000000    -1.594000000     2.490000000
C     3.688000000    -0.711000000     3.505000000
H     3.372000000    -1.037000000     4.493000000
H     4.648000000    -3.533000000     2.258000000
C     1.420000000    -3.569000000     3.238000000
H     1.589000000    -3.276000000     4.271000000
C     0.117000000    -3.893000000     2.827000000
C    -1.081000000    -3.983000000     3.763000000
H    -0.693000000    -4.202000000     4.760000000
H    -1.824000000    -4.740000000     3.504000000
C    -1.867000000    -2.691000000     3.651000000
C    -1.510000000    -1.610000000     4.484000000
H    -0.755000000    -1.898000000     5.212000000
C    -2.875000000    -2.488000000     2.736000000
C    -3.536000000    -1.262000000     2.623000000
H    -4.270000000    -1.106000000     1.837000000
C    -3.091000000    -0.170000000     3.391000000
O    -3.704000000     1.071000000     3.116000000
C    -2.898000000     2.050000000     2.415000000
C    -3.797000000     2.808000000     1.445000000
C    -3.377000000     3.979000000     0.829000000
H    -2.454000000     4.446000000     1.163000000
C    -4.962000000     2.198000000     1.005000000
H    -5.234000000     1.221000000     1.398000000
O    -2.196000000     2.801000000     3.358000000
H    -2.150000000     1.509000000     1.816000000
C    -2.030000000    -0.359000000     4.345000000
C    -1.602000000     0.800000000     5.276000000
H    -1.262000000     0.374000000     6.222000000
H    -2.436000000     1.392000000     5.657000000
C    -0.509000000     1.570000000     4.448000000
C     0.832000000     1.212000000     4.731000000
H     1.081000000     0.417000000     5.430000000
C    -0.860000000     2.507000000     3.501000000
C     0.167000000     3.308000000     2.955000000
H    -0.075000000     4.218000000     2.412000000
C     1.480000000     3.050000000     3.317000000
O     2.511000000     3.739000000     2.672000000
C     2.882000000     3.110000000     1.412000000
C     2.804000000     4.009000000     0.122000000
C     1.909000000     5.109000000     0.142000000
H     1.381000000     5.537000000     0.990000000
C     3.348000000     3.520000000    -1.069000000
H     4.020000000     2.666000000    -1.100000000
O     4.163000000     2.454000000     1.558000000
H     2.211000000     2.280000000     1.147000000
C     1.791000000     2.052000000     4.218000000
C     3.310000000     1.619000000     4.410000000
H     3.410000000     1.087000000     5.358000000
H     3.846000000     2.570000000     4.405000000
C     3.702000000     0.682000000     3.247000000
C     4.129000000     1.126000000     1.955000000
C     4.428000000     0.167000000     0.986000000
H     4.849000000     0.450000000     0.025000000
C     4.365000000    -1.170000000     1.253000000
O     4.594000000    -2.106000000     0.166000000
C     3.411000000    -2.656000000    -0.485000000
H     2.532000000    -2.060000000    -0.200000000
C     3.596000000    -2.744000000    -2.049000000
C     2.896000000    -3.699000000    -2.811000000
H     2.257000000    -4.450000000    -2.353000000
C     4.347000000    -1.685000000    -2.654000000
H     4.913000000    -0.968000000    -2.066000000
C     4.314000000    -1.570000000    -4.057000000
O     5.090000000    -0.655000000    -4.670000000
C     3.610000000    -2.602000000    -4.795000000
H     3.695000000    -2.688000000    -5.875000000
C     2.949000000    -3.670000000    -4.236000000
O     2.331000000    -4.583000000    -5.056000000
C     1.415000000    -5.417000000    -4.544000000
C     0.074000000    -5.005000000    -4.398000000
H    -0.164000000    -4.091000000    -4.935000000
C     1.703000000    -6.737000000    -4.123000000
H     2.702000000    -7.102000000    -4.346000000
C     0.704000000    -7.529000000    -3.538000000
H     0.986000000    -8.482000000    -3.098000000
C    -0.569000000    -7.105000000    -3.345000000
H    -1.318000000    -7.727000000    -2.860000000
C    -0.909000000    -5.784000000    -3.785000000
O    -2.240000000    -5.348000000    -3.781000000
C    -2.630000000    -4.369000000    -2.911000000
C    -3.513000000    -3.347000000    -3.235000000
H    -3.880000000    -3.337000000    -4.258000000
C    -3.992000000    -2.437000000    -2.334000000
O    -4.910000000    -1.565000000    -2.888000000
C    -5.907000000    -1.011000000    -2.198000000
C    -5.815000000     0.278000000    -1.712000000
H    -4.838000000     0.742000000    -1.821000000
C    -7.027000000    -1.775000000    -1.928000000
H    -6.927000000    -2.783000000    -2.324000000
C    -8.173000000    -1.214000000    -1.258000000
H    -9.075000000    -1.783000000    -1.048000000
C    -8.018000000     0.049000000    -0.816000000
H    -8.862000000     0.529000000    -0.328000000
C    -6.828000000     0.806000000    -0.978000000
O    -6.879000000     2.112000000    -0.492000000
C    -5.773000000     2.832000000     0.017000000
C    -5.336000000     4.035000000    -0.602000000
H    -6.004000000     4.520000000    -1.309000000
C    -4.136000000     4.593000000    -0.131000000
O    -3.812000000     5.823000000    -0.682000000
C    -2.686000000     6.597000000    -0.445000000
C    -1.423000000     6.340000000    -1.009000000
H    -1.236000000     5.425000000    -1.565000000
C    -2.872000000     7.679000000     0.339000000
H    -3.843000000     7.952000000     0.744000000
C    -1.861000000     8.585000000     0.672000000
H    -2.081000000     9.451000000     1.291000000
C    -0.582000000     8.289000000     0.148000000
H     0.267000000     8.926000000     0.386000000
C    -0.408000000     7.163000000    -0.664000000
O     0.821000000     6.942000000    -1.137000000
C     1.559000000     5.779000000    -1.053000000
C     2.104000000     5.252000000    -2.203000000
H     1.754000000     5.651000000    -3.152000000
C     2.947000000     4.149000000    -2.282000000
O     3.315000000     3.601000000    -3.527000000
C     4.453000000     2.758000000    -3.626000000
C     5.729000000     3.174000000    -3.200000000
H     5.842000000     4.056000000    -2.575000000
C     6.777000000     2.270000000    -3.359000000
H     7.814000000     2.405000000    -3.062000000
C     6.529000000     1.072000000    -4.011000000
H     7.361000000     0.373000000    -4.041000000
C     5.289000000     0.626000000    -4.260000000
C     4.249000000     1.528000000    -4.177000000
H     3.214000000     1.205000000    -4.251000000
O    -0.414000000     0.708000000    -6.823000000
H    -0.829000000    -0.085000000    -6.484000000
H    -0.491000000     1.342000000    -6.110000000
O    -1.922000000    -3.598000000    -7.859000000
H    -1.351000000    -4.362000000    -7.943000000
H    -1.377000000    -2.940000000    -7.428000000
O     0.401000000     4.338000000    -9.070000000
H     0.768000000     5.109000000    -9.504000000
H     0.266000000     4.615000000    -8.164000000
O    -3.450000000     7.273000000    -3.743000000
H    -2.617000000     6.877000000    -3.489000000
H    -3.254000000     7.747000000    -4.551000000
O     1.505000000     4.423000000    -6.381000000
H     1.120000000     4.155000000    -5.546000000
H     2.243000000     3.826000000    -6.507000000
O    -1.738000000     4.874000000    -5.069000000
H    -1.320000000     4.013000000    -5.079000000
H    -2.310000000     4.854000000    -4.301000000
O    -2.578000000     6.019000000    -7.680000000
H    -2.251000000     5.745000000    -6.823000000
H    -1.966000000     6.699000000    -7.963000000
O    -4.590000000     2.781000000    -3.477000000
H    -4.568000000     2.500000000    -2.563000000
H    -3.835000000     2.350000000    -3.879000000
O    -2.288000000    -1.116000000    -5.675000000
H    -2.453000000    -0.529000000    -4.938000000
H    -3.159000000    -1.333000000    -6.008000000
O    -3.501000000     1.749000000    -6.802000000
H    -2.960000000     1.661000000    -6.017000000
H    -3.115000000     2.485000000    -7.277000000
O     1.914000000     2.021000000    -7.816000000
H     1.142000000     1.457000000    -7.851000000
H     1.756000000     2.684000000    -8.488000000
O    -6.604000000     4.226000000    -5.002000000
H    -5.960000000     3.658000000    -4.579000000
H    -7.409000000     3.709000000    -5.011000000
O    -2.240000000     3.729000000    -9.142000000
H    -2.586000000     4.539000000    -8.765000000
H    -1.301000000     3.891000000    -9.237000000
O    -1.631000000    -0.058000000    -9.128000000
H    -0.712000000    -0.252000000    -9.312000000
H    -1.618000000     0.373000000    -8.274000000
O    -4.462000000    -0.584000000    -8.725000000
H    -3.581000000    -0.314000000    -8.985000000
H    -4.634000000    -0.094000000    -7.920000000
O    -6.454000000    -2.098000000    -5.380000000
H    -6.007000000    -2.320000000    -6.197000000
H    -6.123000000    -1.228000000    -5.155000000
O     0.470000000    -2.111000000    -7.314000000
H     0.009000000    -1.871000000    -6.511000000
H     0.694000000    -1.274000000    -7.722000000
O    -5.693000000     1.005000000    -5.345000000
H    -4.946000000     1.235000000    -5.897000000
H    -5.689000000     1.663000000    -4.650000000
O    -6.110000000     4.098000000    -7.887000000
H    -5.963000000     3.976000000    -6.949000000
H    -6.892000000     3.580000000    -8.076000000
