201
-1226.28470
C    -3.650000000    -2.703000000    -1.360000000
H    -4.021000000    -1.964000000    -0.654000000
C    -2.636000000    -3.641000000    -0.934000000
C    -2.104000000    -4.475000000    -1.949000000
H    -1.358000000    -5.217000000    -1.675000000
C    -2.021000000    -3.663000000     0.405000000
O    -3.066000000    -3.449000000     1.329000000
H    -1.425000000    -2.740000000     0.477000000
O    -1.196000000    -4.806000000     0.736000000
C     0.041000000    -4.429000000     1.304000000
C     1.164000000    -4.290000000     0.458000000
H     1.013000000    -4.525000000    -0.593000000
C     2.407000000    -3.982000000     1.055000000
O     3.501000000    -3.824000000     0.240000000
C     2.517000000    -3.646000000     2.393000000
C     3.813000000    -3.078000000     2.966000000
H     3.802000000    -3.034000000     4.057000000
C     3.911000000    -1.607000000     2.620000000
C     3.552000000    -0.589000000     3.564000000
H     3.372000000    -0.866000000     4.600000000
H     4.755000000    -3.545000000     2.673000000
C     1.313000000    -3.598000000     3.165000000
H     1.388000000    -3.178000000     4.165000000
C     0.109000000    -4.100000000     2.657000000
C    -1.159000000    -4.184000000     3.494000000
H    -0.871000000    -4.323000000     4.538000000
H    -1.825000000    -4.998000000     3.199000000
C    -1.969000000    -2.880000000     3.432000000
C    -1.664000000    -1.844000000     4.352000000
H    -0.881000000    -1.939000000     5.101000000
C    -2.880000000    -2.585000000     2.377000000
C    -3.565000000    -1.358000000     2.451000000
H    -4.284000000    -1.142000000     1.665000000
C    -3.277000000    -0.374000000     3.356000000
O    -3.859000000     0.832000000     3.152000000
C    -3.097000000     1.930000000     2.523000000
C    -3.994000000     2.732000000     1.571000000
C    -3.842000000     4.081000000     1.423000000
H    -3.080000000     4.619000000     1.981000000
C    -4.807000000     2.069000000     0.664000000
H    -4.856000000     0.984000000     0.701000000
O    -2.475000000     2.803000000     3.549000000
H    -2.213000000     1.599000000     1.959000000
C    -2.214000000    -0.537000000     4.247000000
C    -1.890000000     0.581000000     5.186000000
H    -1.495000000     0.168000000     6.117000000
H    -2.692000000     1.255000000     5.496000000
C    -0.832000000     1.498000000     4.680000000
C     0.541000000     1.177000000     4.807000000
H     0.788000000     0.377000000     5.499000000
C    -1.141000000     2.555000000     3.804000000
C    -0.202000000     3.385000000     3.159000000
H    -0.558000000     4.078000000     2.400000000
C     1.148000000     3.077000000     3.333000000
O     2.000000000     3.706000000     2.455000000
C     2.540000000     3.000000000     1.340000000
C     2.439000000     3.887000000     0.077000000
C     1.451000000     4.928000000     0.003000000
H     0.944000000     5.248000000     0.909000000
C     3.155000000     3.479000000    -1.037000000
H     3.899000000     2.692000000    -0.948000000
O     3.832000000     2.500000000     1.606000000
H     1.846000000     2.203000000     1.035000000
C     1.562000000     1.978000000     4.163000000
C     3.045000000     1.701000000     4.331000000
H     3.346000000     1.407000000     5.339000000
H     3.541000000     2.643000000     4.089000000
C     3.467000000     0.708000000     3.256000000
C     3.877000000     1.128000000     1.954000000
C     4.353000000     0.202000000     1.025000000
H     4.717000000     0.533000000     0.056000000
C     4.476000000    -1.148000000     1.372000000
O     4.776000000    -1.880000000     0.319000000
C     3.622000000    -2.481000000    -0.347000000
H     2.798000000    -1.782000000    -0.140000000
C     3.884000000    -2.457000000    -1.846000000
C     3.216000000    -3.322000000    -2.734000000
H     2.493000000    -3.988000000    -2.269000000
C     4.801000000    -1.510000000    -2.451000000
H     5.445000000    -0.805000000    -1.931000000
C     4.891000000    -1.504000000    -3.879000000
O     5.592000000    -0.572000000    -4.528000000
C     4.189000000    -2.406000000    -4.769000000
H     4.390000000    -2.481000000    -5.834000000
C     3.360000000    -3.353000000    -4.160000000
O     2.718000000    -4.189000000    -5.025000000
C     1.773000000    -5.090000000    -4.672000000
C     0.447000000    -4.736000000    -4.597000000
H     0.202000000    -3.688000000    -4.747000000
C     2.024000000    -6.482000000    -4.532000000
H     3.059000000    -6.813000000    -4.531000000
C     1.033000000    -7.348000000    -4.141000000
H     1.261000000    -8.405000000    -4.026000000
C    -0.275000000    -6.934000000    -3.922000000
H    -1.058000000    -7.673000000    -3.768000000
C    -0.571000000    -5.645000000    -4.256000000
O    -1.925000000    -5.207000000    -4.228000000
C    -2.557000000    -4.431000000    -3.253000000
C    -3.548000000    -3.514000000    -3.657000000
H    -3.832000000    -3.451000000    -4.705000000
C    -4.061000000    -2.655000000    -2.713000000
O    -4.894000000    -1.617000000    -3.066000000
C    -5.823000000    -1.088000000    -2.272000000
C    -5.869000000     0.312000000    -2.052000000
H    -5.284000000     1.037000000    -2.611000000
C    -6.834000000    -1.908000000    -1.719000000
H    -6.818000000    -2.970000000    -1.952000000
C    -7.729000000    -1.360000000    -0.792000000
H    -8.409000000    -1.933000000    -0.167000000
C    -7.707000000    -0.010000000    -0.463000000
H    -8.387000000     0.441000000     0.255000000
C    -6.747000000     0.806000000    -1.112000000
O    -6.713000000     2.161000000    -0.867000000
C    -5.648000000     2.791000000    -0.234000000
C    -5.475000000     4.191000000    -0.352000000
H    -5.951000000     4.785000000    -1.128000000
C    -4.528000000     4.778000000     0.431000000
O    -4.310000000     6.159000000     0.288000000
C    -3.059000000     6.640000000     0.309000000
C    -2.021000000     6.359000000    -0.636000000
H    -2.256000000     5.795000000    -1.535000000
C    -2.741000000     7.390000000     1.435000000
H    -3.569000000     7.609000000     2.105000000
C    -1.422000000     7.826000000     1.670000000
H    -1.168000000     8.249000000     2.638000000
C    -0.460000000     7.622000000     0.733000000
H     0.539000000     7.976000000     0.973000000
C    -0.737000000     6.850000000    -0.428000000
O     0.269000000     6.553000000    -1.320000000
C     1.161000000     5.568000000    -1.199000000
C     1.766000000     4.970000000    -2.305000000
H     1.597000000     5.516000000    -3.229000000
C     2.747000000     3.985000000    -2.242000000
O     3.210000000     3.405000000    -3.334000000
C     4.372000000     2.768000000    -3.504000000
C     5.595000000     3.400000000    -3.375000000
H     5.767000000     4.408000000    -3.006000000
C     6.805000000     2.830000000    -3.692000000
H     7.694000000     3.424000000    -3.495000000
C     6.884000000     1.447000000    -3.970000000
H     7.881000000     1.034000000    -4.102000000
C     5.662000000     0.731000000    -4.127000000
C     4.435000000     1.426000000    -3.995000000
H     3.485000000     0.937000000    -4.194000000
O     0.173000000     0.590000000    -5.522000000
H    -0.346000000     0.092000000    -4.891000000
H    -0.161000000     1.484000000    -5.455000000
O     0.980000000     2.171000000    -8.701000000
H     1.724000000     1.899000000    -9.239000000
H     1.297000000     2.098000000    -7.801000000
O    -3.087000000     8.076000000    -4.492000000
H    -3.003000000     7.377000000    -5.141000000
H    -2.377000000     8.682000000    -4.700000000
O    -4.989000000     7.381000000    -2.482000000
H    -4.181000000     7.642000000    -2.923000000
H    -4.856000000     6.459000000    -2.263000000
O     0.929000000     3.470000000    -6.188000000
H     0.382000000     3.250000000    -5.434000000
H     1.818000000     3.249000000    -5.911000000
O    -1.129000000     5.589000000    -4.066000000
H    -0.967000000     4.717000000    -3.708000000
H    -0.318000000     6.070000000    -3.902000000
O    -3.180000000     5.618000000    -5.846000000
H    -2.470000000     5.569000000    -5.206000000
H    -2.993000000     4.914000000    -6.466000000
O     0.495000000     5.874000000    -7.122000000
H     0.305000000     6.299000000    -6.286000000
H     0.587000000     4.947000000    -6.904000000
O    -3.998000000     4.118000000    -3.196000000
H    -3.367000000     4.505000000    -3.803000000
H    -3.832000000     3.176000000    -3.247000000
O    -1.745000000    -1.095000000    -4.477000000
H    -2.206000000    -0.698000000    -3.737000000
H    -2.150000000    -1.956000000    -4.577000000
O    -4.278000000     1.202000000    -5.835000000
H    -3.807000000     1.469000000    -5.046000000
H    -3.615000000     0.776000000    -6.378000000
O     2.513000000     0.621000000    -6.878000000
H     2.446000000    -0.231000000    -7.309000000
H     1.888000000     0.574000000    -6.154000000
O    -6.942000000     4.265000000    -4.062000000
H    -6.096000000     3.989000000    -3.708000000
H    -7.029000000     3.778000000    -4.881000000
O    -6.763000000     0.147000000    -5.286000000
H    -5.930000000     0.604000000    -5.174000000
H    -6.545000000    -0.625000000    -5.808000000
O    -1.019000000     4.380000000    -9.757000000
H    -1.381000000     3.920000000    -9.000000000
H    -0.122000000     4.053000000    -9.829000000
O    -0.719000000    -0.083000000    -9.207000000
H    -1.166000000    -0.047000000    -8.361000000
H     0.092000000     0.407000000    -9.071000000
O    -2.138000000     2.847000000    -6.913000000
H    -2.370000000     1.926000000    -6.794000000
H    -1.927000000     3.156000000    -6.032000000
O    -2.350000000    -0.199000000    -7.120000000
H    -2.756000000    -1.063000000    -7.181000000
H    -1.610000000    -0.324000000    -6.525000000
O    -4.810000000     3.510000000    -7.433000000
H    -5.546000000     2.969000000    -7.146000000
H    -4.036000000     2.972000000    -7.262000000
