201
-1243.14193
C    -3.794000000    -2.537000000    -1.225000000
H    -4.266000000    -1.787000000    -0.596000000
C    -2.724000000    -3.258000000    -0.840000000
C    -2.152000000    -4.101000000    -1.762000000
H    -1.251000000    -4.642000000    -1.484000000
C    -2.189000000    -3.271000000     0.495000000
O    -3.199000000    -3.158000000     1.434000000
H    -1.556000000    -2.376000000     0.588000000
O    -1.392000000    -4.492000000     0.787000000
C    -0.203000000    -4.367000000     1.430000000
C     0.958000000    -4.381000000     0.689000000
H     0.806000000    -4.527000000    -0.377000000
C     2.221000000    -4.097000000     1.167000000
O     3.408000000    -4.099000000     0.409000000
C     2.260000000    -3.684000000     2.459000000
C     3.556000000    -3.078000000     3.037000000
H     3.658000000    -3.264000000     4.108000000
C     3.736000000    -1.581000000     2.795000000
C     3.377000000    -0.529000000     3.680000000
H     3.188000000    -0.768000000     4.724000000
H     4.437000000    -3.607000000     2.668000000
C     1.118000000    -3.634000000     3.319000000
H     1.161000000    -3.304000000     4.354000000
C    -0.128000000    -3.994000000     2.779000000
C    -1.379000000    -3.875000000     3.524000000
H    -1.175000000    -3.998000000     4.590000000
H    -2.080000000    -4.685000000     3.309000000
C    -2.096000000    -2.537000000     3.444000000
C    -1.721000000    -1.543000000     4.381000000
H    -0.948000000    -1.791000000     5.103000000
C    -2.954000000    -2.204000000     2.396000000
C    -3.542000000    -0.970000000     2.269000000
H    -4.262000000    -0.722000000     1.493000000
C    -3.235000000     0.004000000     3.299000000
O    -3.782000000     1.228000000     3.140000000
C    -3.085000000     2.210000000     2.454000000
C    -3.965000000     2.930000000     1.452000000
C    -3.624000000     4.227000000     1.135000000
H    -2.743000000     4.722000000     1.536000000
C    -5.033000000     2.236000000     0.881000000
H    -5.330000000     1.281000000     1.307000000
O    -2.426000000     3.053000000     3.378000000
H    -2.344000000     1.640000000     1.876000000
C    -2.258000000    -0.284000000     4.309000000
C    -1.821000000     0.833000000     5.264000000
H    -1.486000000     0.417000000     6.216000000
H    -2.680000000     1.466000000     5.494000000
C    -0.760000000     1.756000000     4.640000000
C     0.617000000     1.528000000     4.856000000
H     0.810000000     0.771000000     5.612000000
C    -1.119000000     2.725000000     3.662000000
C    -0.143000000     3.509000000     3.033000000
H    -0.421000000     4.328000000     2.375000000
C     1.157000000     3.132000000     3.170000000
O     2.065000000     3.740000000     2.306000000
C     2.672000000     2.992000000     1.163000000
C     2.661000000     3.801000000    -0.112000000
C     1.716000000     4.797000000    -0.339000000
H     1.229000000     5.189000000     0.549000000
C     3.314000000     3.240000000    -1.206000000
H     4.014000000     2.444000000    -0.964000000
O     3.950000000     2.407000000     1.458000000
H     1.930000000     2.230000000     0.884000000
C     1.556000000     2.216000000     4.122000000
C     3.072000000     1.922000000     4.308000000
H     3.096000000     1.506000000     5.317000000
H     3.789000000     2.744000000     4.362000000
C     3.542000000     0.808000000     3.314000000
C     3.959000000     1.146000000     1.980000000
C     4.281000000     0.089000000     1.172000000
H     4.674000000     0.316000000     0.184000000
C     4.309000000    -1.258000000     1.563000000
O     4.626000000    -2.108000000     0.484000000
C     3.637000000    -2.806000000    -0.265000000
H     2.689000000    -2.250000000    -0.314000000
C     3.935000000    -2.847000000    -1.728000000
C     3.327000000    -3.887000000    -2.447000000
H     2.862000000    -4.756000000    -1.988000000
C     4.564000000    -1.798000000    -2.417000000
H     5.057000000    -1.019000000    -1.840000000
C     4.765000000    -1.899000000    -3.768000000
O     5.632000000    -1.037000000    -4.396000000
C     4.119000000    -2.900000000    -4.499000000
H     4.173000000    -2.968000000    -5.582000000
C     3.384000000    -3.890000000    -3.857000000
O     2.787000000    -4.820000000    -4.663000000
C     1.610000000    -5.449000000    -4.374000000
C     0.363000000    -4.870000000    -4.449000000
H     0.432000000    -3.832000000    -4.765000000
C     1.703000000    -6.740000000    -3.854000000
H     2.649000000    -7.273000000    -3.911000000
C     0.568000000    -7.417000000    -3.390000000
H     0.597000000    -8.457000000    -3.078000000
C    -0.704000000    -6.745000000    -3.397000000
H    -1.599000000    -7.224000000    -3.010000000
C    -0.788000000    -5.469000000    -3.975000000
O    -1.962000000    -4.764000000    -4.099000000
C    -2.659000000    -4.170000000    -3.096000000
C    -3.646000000    -3.331000000    -3.470000000
H    -4.003000000    -3.158000000    -4.482000000
C    -4.169000000    -2.432000000    -2.513000000
O    -4.903000000    -1.376000000    -2.965000000
C    -5.914000000    -0.867000000    -2.281000000
C    -5.813000000     0.435000000    -1.629000000
H    -4.868000000     0.967000000    -1.705000000
C    -7.109000000    -1.599000000    -2.081000000
H    -7.150000000    -2.607000000    -2.486000000
C    -8.190000000    -1.076000000    -1.311000000
H    -9.088000000    -1.620000000    -1.032000000
C    -8.097000000     0.248000000    -0.872000000
H    -9.013000000     0.689000000    -0.486000000
C    -6.937000000     0.989000000    -1.006000000
O    -7.032000000     2.287000000    -0.546000000
C    -5.827000000     2.942000000    -0.041000000
C    -5.411000000     4.163000000    -0.568000000
H    -5.955000000     4.626000000    -1.387000000
C    -4.348000000     4.832000000     0.058000000
O    -3.942000000     6.022000000    -0.505000000
C    -2.647000000     6.594000000    -0.363000000
C    -1.654000000     6.164000000    -1.203000000
H    -1.898000000     5.476000000    -2.008000000
C    -2.356000000     7.511000000     0.618000000
H    -3.130000000     7.890000000     1.280000000
C    -1.038000000     7.891000000     0.827000000
H    -0.845000000     8.653000000     1.579000000
C    -0.067000000     7.515000000    -0.061000000
H     0.939000000     7.860000000     0.166000000
C    -0.312000000     6.601000000    -1.029000000
O     0.638000000     6.290000000    -1.906000000
C     1.541000000     5.259000000    -1.638000000
C     2.335000000     4.766000000    -2.683000000
H     2.232000000     5.183000000    -3.681000000
C     3.185000000     3.759000000    -2.454000000
O     3.830000000     3.272000000    -3.536000000
C     4.939000000     2.491000000    -3.560000000
C     6.147000000     2.984000000    -3.038000000
H     6.196000000     3.939000000    -2.522000000
C     7.223000000     2.046000000    -2.925000000
H     8.198000000     2.426000000    -2.628000000
C     7.027000000     0.741000000    -3.484000000
H     7.956000000     0.184000000    -3.573000000
C     5.765000000     0.330000000    -3.977000000
C     4.703000000     1.223000000    -4.074000000
H     3.713000000     0.972000000    -4.445000000
O     1.202000000    -1.124000000    -5.094000000
H     0.347000000    -1.551000000    -5.034000000
H     1.013000000    -0.192000000    -4.987000000
O     2.792000000     5.049000000    -7.555000000
H     3.249000000     4.431000000    -8.126000000
H     1.923000000     4.666000000    -7.436000000
O     0.558000000     3.939000000    -6.521000000
H     0.725000000     3.334000000    -5.798000000
H     0.082000000     4.666000000    -6.121000000
O    -0.356000000     6.081000000    -5.187000000
H     0.450000000     6.504000000    -4.891000000
H    -1.036000000     6.740000000    -5.049000000
O    -2.236000000     1.882000000    -7.062000000
H    -1.726000000     2.069000000    -6.274000000
H    -1.897000000     1.043000000    -7.373000000
O     1.212000000    -0.258000000    -9.912000000
H     0.459000000    -0.386000000   -10.488000000
H     0.991000000     0.517000000    -9.396000000
O    -2.510000000     4.054000000    -4.030000000
H    -1.853000000     4.696000000    -4.298000000
H    -2.247000000     3.245000000    -4.467000000
O     0.571000000    -2.220000000    -2.493000000
H     1.391000000    -2.291000000    -2.981000000
H     0.558000000    -1.316000000    -2.177000000
O    -3.149000000    -0.623000000    -5.451000000
H    -2.671000000     0.073000000    -4.999000000
H    -3.956000000    -0.724000000    -4.946000000
O     0.338000000     3.347000000    -9.688000000
H     0.927000000     2.919000000   -10.309000000
H     0.664000000     4.245000000    -9.628000000
O     3.208000000     0.726000000    -7.674000000
H     3.386000000     0.548000000    -6.750000000
H     2.255000000     0.805000000    -7.722000000
O    -5.234000000     4.928000000    -3.843000000
H    -4.381000000     4.503000000    -3.749000000
H    -5.838000000     4.211000000    -4.038000000
O    -4.985000000     0.026000000    -7.774000000
H    -4.184000000    -0.266000000    -7.338000000
H    -5.613000000    -0.680000000    -7.619000000
O    -2.409000000     4.242000000    -8.462000000
H    -2.306000000     3.310000000    -8.269000000
H    -1.735000000     4.671000000    -7.935000000
O    -1.786000000    -0.631000000    -8.070000000
H    -2.152000000    -1.404000000    -7.640000000
H    -0.842000000    -0.789000000    -8.084000000
O     0.541000000     1.194000000    -7.709000000
H     0.020000000     1.934000000    -8.022000000
H     0.637000000     1.349000000    -6.770000000
O    -1.088000000    -2.437000000    -5.993000000
H    -1.868000000    -1.889000000    -5.910000000
H    -1.291000000    -3.222000000    -5.485000000
O    -5.150000000     2.560000000    -6.806000000
H    -4.218000000     2.434000000    -6.626000000
H    -5.467000000     1.691000000    -7.050000000
O     0.653000000    -3.577000000    -7.522000000
H     1.472000000    -3.243000000    -7.157000000
H    -0.028000000    -3.053000000    -7.101000000
