201
-1233.99395
C    -4.899000000    -2.282000000    -0.309000000
H    -5.351000000    -2.070000000     0.657000000
C    -3.652000000    -2.814000000    -0.478000000
C    -3.191000000    -3.102000000    -1.726000000
H    -2.234000000    -3.586000000    -1.903000000
C    -2.732000000    -3.045000000     0.716000000
O    -3.425000000    -2.858000000     1.932000000
H    -1.943000000    -2.282000000     0.638000000
O    -2.249000000    -4.442000000     0.818000000
C    -0.921000000    -4.566000000     1.127000000
C    -0.057000000    -4.525000000     0.087000000
H    -0.326000000    -4.493000000    -0.966000000
C     1.298000000    -4.353000000     0.337000000
O     2.201000000    -4.194000000    -0.786000000
C     1.757000000    -4.168000000     1.688000000
C     3.163000000    -4.072000000     2.034000000
H     3.404000000    -4.453000000     3.028000000
C     3.737000000    -2.662000000     1.877000000
C     3.700000000    -1.744000000     2.928000000
H     3.613000000    -2.168000000     3.925000000
H     3.672000000    -4.754000000     1.349000000
C     0.850000000    -4.191000000     2.743000000
H     1.241000000    -3.944000000     3.727000000
C    -0.487000000    -4.259000000     2.430000000
C    -1.446000000    -3.956000000     3.620000000
H    -1.003000000    -4.251000000     4.574000000
H    -2.377000000    -4.513000000     3.492000000
C    -1.847000000    -2.480000000     3.727000000
C    -1.343000000    -1.528000000     4.682000000
H    -0.549000000    -1.871000000     5.340000000
C    -2.861000000    -2.028000000     2.869000000
C    -3.270000000    -0.672000000     2.878000000
H    -4.077000000    -0.360000000     2.220000000
C    -2.742000000     0.219000000     3.782000000
O    -3.099000000     1.568000000     3.717000000
C    -2.270000000     2.318000000     2.862000000
C    -3.021000000     3.096000000     1.816000000
C    -2.509000000     4.249000000     1.224000000
H    -1.522000000     4.562000000     1.552000000
C    -4.270000000     2.655000000     1.316000000
H    -4.692000000     1.686000000     1.573000000
O    -1.362000000     3.064000000     3.739000000
H    -1.618000000     1.688000000     2.240000000
C    -1.696000000    -0.223000000     4.626000000
C    -0.923000000     0.740000000     5.495000000
H    -0.475000000     0.234000000     6.353000000
H    -1.612000000     1.404000000     6.022000000
C     0.132000000     1.387000000     4.651000000
C     1.372000000     0.753000000     4.578000000
H     1.563000000    -0.141000000     5.165000000
C    -0.082000000     2.612000000     3.931000000
C     1.051000000     3.132000000     3.243000000
H     0.979000000     4.058000000     2.679000000
C     2.272000000     2.414000000     3.224000000
O     3.227000000     2.867000000     2.400000000
C     3.564000000     2.090000000     1.190000000
C     3.555000000     3.079000000    -0.050000000
C     2.800000000     4.267000000    -0.035000000
H     2.406000000     4.568000000     0.932000000
C     4.226000000     2.641000000    -1.193000000
H     4.671000000     1.675000000    -1.418000000
O     4.755000000     1.314000000     1.352000000
H     2.718000000     1.423000000     0.965000000
C     2.454000000     1.303000000     3.952000000
C     3.754000000     0.600000000     3.973000000
H     3.877000000     0.108000000     4.940000000
H     4.635000000     1.245000000     3.965000000
C     3.928000000    -0.389000000     2.758000000
C     4.445000000     0.001000000     1.554000000
C     4.658000000    -0.904000000     0.501000000
H     5.099000000    -0.583000000    -0.439000000
C     4.216000000    -2.249000000     0.647000000
O     4.263000000    -3.010000000    -0.496000000
C     2.891000000    -3.048000000    -1.109000000
H     2.317000000    -2.211000000    -0.684000000
C     2.850000000    -2.806000000    -2.580000000
C     1.849000000    -3.325000000    -3.406000000
H     1.036000000    -3.859000000    -2.921000000
C     3.970000000    -2.195000000    -3.183000000
H     4.851000000    -1.842000000    -2.653000000
C     3.995000000    -2.105000000    -4.552000000
O     5.031000000    -1.409000000    -5.127000000
C     2.980000000    -2.630000000    -5.349000000
H     3.002000000    -2.488000000    -6.426000000
C     1.945000000    -3.350000000    -4.798000000
O     0.951000000    -3.778000000    -5.618000000
C    -0.302000000    -4.190000000    -5.306000000
C    -1.181000000    -3.363000000    -4.632000000
H    -1.010000000    -2.332000000    -4.331000000
C    -0.704000000    -5.460000000    -5.789000000
H    -0.052000000    -6.062000000    -6.416000000
C    -1.962000000    -5.956000000    -5.522000000
H    -2.303000000    -6.851000000    -6.035000000
C    -2.774000000    -5.143000000    -4.824000000
H    -3.825000000    -5.380000000    -4.678000000
C    -2.473000000    -3.854000000    -4.381000000
O    -3.464000000    -2.898000000    -4.079000000
C    -3.938000000    -2.772000000    -2.830000000
C    -5.178000000    -2.051000000    -2.694000000
H    -5.748000000    -1.796000000    -3.584000000
C    -5.649000000    -1.944000000    -1.387000000
O    -6.981000000    -1.528000000    -1.275000000
C    -7.248000000    -0.422000000    -0.510000000
C    -6.756000000     0.841000000    -0.790000000
H    -6.206000000     0.932000000    -1.723000000
C    -8.001000000    -0.605000000     0.680000000
H    -8.497000000    -1.554000000     0.872000000
C    -8.185000000     0.464000000     1.533000000
H    -8.913000000     0.317000000     2.327000000
C    -7.565000000     1.716000000     1.268000000
H    -7.845000000     2.547000000     1.910000000
C    -6.811000000     1.868000000     0.123000000
O    -6.189000000     3.043000000    -0.142000000
C    -4.920000000     3.404000000     0.274000000
C    -4.335000000     4.603000000    -0.224000000
H    -4.831000000     5.082000000    -1.064000000
C    -3.138000000     4.933000000     0.236000000
O    -2.538000000     6.105000000    -0.317000000
C    -1.324000000     6.533000000     0.043000000
C    -0.195000000     6.124000000    -0.624000000
H    -0.281000000     5.431000000    -1.457000000
C    -1.206000000     7.474000000     1.093000000
H    -2.131000000     7.706000000     1.615000000
C     0.030000000     8.043000000     1.437000000
H     0.211000000     8.802000000     2.194000000
C     1.153000000     7.644000000     0.624000000
H     2.131000000     7.984000000     0.954000000
C     1.052000000     6.665000000    -0.298000000
O     2.107000000     6.353000000    -1.132000000
C     2.725000000     5.095000000    -1.189000000
C     3.417000000     4.694000000    -2.338000000
H     3.354000000     5.308000000    -3.233000000
C     4.181000000     3.435000000    -2.300000000
O     4.761000000     3.079000000    -3.505000000
C     5.462000000     1.971000000    -3.689000000
C     6.780000000     1.909000000    -3.324000000
H     7.207000000     2.745000000    -2.777000000
C     7.590000000     0.798000000    -3.530000000
H     8.630000000     0.860000000    -3.220000000
C     7.040000000    -0.299000000    -4.177000000
H     7.575000000    -1.233000000    -4.331000000
C     5.669000000    -0.285000000    -4.558000000
C     4.904000000     0.842000000    -4.349000000
H     3.893000000     0.814000000    -4.747000000
O     1.176000000    -4.526000000    -8.732000000
H     0.353000000    -4.874000000    -8.388000000
H     0.966000000    -3.630000000    -8.994000000
O     4.524000000    -0.765000000    -7.848000000
H     4.897000000    -0.841000000    -6.970000000
H     3.679000000    -0.335000000    -7.713000000
O    -1.408000000     3.489000000    -2.350000000
H    -1.151000000     2.610000000    -2.072000000
H    -2.348000000     3.421000000    -2.519000000
O    -0.957000000     4.426000000    -4.862000000
H    -1.143000000     3.677000000    -5.429000000
H    -1.108000000     4.098000000    -3.975000000
O    -3.573000000     0.820000000    -4.755000000
H    -4.102000000     0.039000000    -4.918000000
H    -2.705000000     0.595000000    -5.089000000
O    -1.220000000     2.511000000    -6.921000000
H    -1.069000000     1.715000000    -6.410000000
H    -1.237000000     2.213000000    -7.830000000
O    -5.239000000    -1.425000000    -6.634000000
H    -4.543000000    -1.340000000    -7.285000000
H    -5.072000000    -2.269000000    -6.214000000
O    -1.569000000    -0.967000000    -7.781000000
H    -1.516000000    -0.457000000    -6.973000000
H    -2.251000000    -0.534000000    -8.294000000
O    -4.132000000     3.241000000    -3.628000000
H    -4.098000000     3.780000000    -4.418000000
H    -3.742000000     2.407000000    -3.891000000
O     1.290000000     3.632000000    -8.525000000
H     1.777000000     4.428000000    -8.735000000
H     1.212000000     3.644000000    -7.571000000
O    -0.545000000     1.966000000    -9.924000000
H    -1.137000000     2.664000000   -10.207000000
H     0.124000000     2.415000000    -9.407000000
O     4.105000000     5.438000000    -5.928000000
H     3.656000000     5.837000000    -6.673000000
H     3.493000000     4.778000000    -5.605000000
O     1.499000000     3.340000000    -5.417000000
H     0.640000000     3.624000000    -5.105000000
H     1.480000000     2.386000000    -5.336000000
O    -2.626000000     4.919000000    -7.842000000
H    -3.289000000     5.057000000    -7.165000000
H    -2.127000000     4.161000000    -7.537000000
O     1.821000000    -0.268000000    -7.553000000
H     1.071000000    -0.697000000    -7.964000000
H     1.516000000    -0.040000000    -6.675000000
O    -0.075000000     6.258000000    -6.752000000
H    -0.513000000     5.817000000    -7.481000000
H    -0.099000000     5.621000000    -6.038000000
O    -3.104000000     6.349000000    -4.511000000
H    -2.766000000     7.101000000    -4.024000000
H    -2.575000000     5.611000000    -4.208000000
O    -4.553000000     3.349000000    -6.641000000
H    -5.455000000     3.590000000    -6.850000000
H    -4.316000000     2.706000000    -7.308000000
O     0.352000000    -2.100000000    -9.734000000
H    -0.206000000    -1.762000000    -9.034000000
H    -0.158000000    -1.963000000   -10.533000000
