201
-1267.10576
C    -4.876000000    -1.784000000    -0.880000000
H    -5.213000000    -1.224000000    -0.012000000
C    -3.802000000    -2.664000000    -0.828000000
C    -3.391000000    -3.324000000    -1.954000000
H    -2.610000000    -4.077000000    -2.017000000
C    -3.072000000    -2.733000000     0.502000000
O    -3.939000000    -2.488000000     1.637000000
H    -2.263000000    -1.995000000     0.397000000
O    -2.531000000    -4.043000000     0.575000000
C    -1.214000000    -4.156000000     1.010000000
C    -0.300000000    -4.326000000     0.025000000
H    -0.579000000    -4.280000000    -1.024000000
C     1.053000000    -4.375000000     0.314000000
O     1.928000000    -4.464000000    -0.705000000
C     1.437000000    -4.218000000     1.647000000
C     2.891000000    -4.258000000     2.011000000
H     3.103000000    -4.614000000     3.022000000
C     3.464000000    -2.825000000     1.942000000
C     3.476000000    -1.945000000     3.064000000
H     3.039000000    -2.298000000     3.994000000
H     3.442000000    -4.993000000     1.422000000
C     0.521000000    -4.074000000     2.668000000
H     0.930000000    -3.954000000     3.668000000
C    -0.869000000    -4.024000000     2.293000000
C    -1.956000000    -3.797000000     3.319000000
H    -1.515000000    -4.078000000     4.278000000
H    -2.760000000    -4.510000000     3.126000000
C    -2.379000000    -2.354000000     3.463000000
C    -1.724000000    -1.527000000     4.404000000
H    -0.935000000    -1.942000000     5.026000000
C    -3.381000000    -1.783000000     2.652000000
C    -3.719000000    -0.398000000     2.717000000
H    -4.469000000    -0.026000000     2.024000000
C    -3.003000000     0.398000000     3.580000000
O    -3.229000000     1.725000000     3.474000000
C    -2.207000000     2.614000000     2.998000000
C    -2.800000000     3.600000000     1.998000000
C    -2.289000000     4.842000000     1.758000000
H    -1.426000000     5.181000000     2.325000000
C    -3.807000000     3.120000000     1.174000000
H    -4.266000000     2.161000000     1.398000000
O    -1.309000000     3.174000000     4.012000000
H    -1.538000000     2.005000000     2.372000000
C    -2.014000000    -0.167000000     4.457000000
C    -1.202000000     0.640000000     5.403000000
H    -0.871000000     0.018000000     6.237000000
H    -1.814000000     1.463000000     5.778000000
C    -0.009000000     1.278000000     4.772000000
C     1.233000000     0.646000000     4.802000000
H     1.353000000    -0.316000000     5.293000000
C    -0.135000000     2.491000000     4.119000000
C     0.967000000     3.004000000     3.432000000
H     0.838000000     3.979000000     2.969000000
C     2.189000000     2.304000000     3.373000000
O     3.221000000     2.792000000     2.602000000
C     3.453000000     2.037000000     1.391000000
C     3.640000000     3.051000000     0.222000000
C     3.164000000     4.349000000     0.184000000
H     2.661000000     4.732000000     1.069000000
C     4.172000000     2.469000000    -0.955000000
H     4.474000000     1.430000000    -1.057000000
O     4.542000000     1.103000000     1.476000000
H     2.516000000     1.524000000     1.125000000
C     2.360000000     1.145000000     4.147000000
C     3.677000000     0.372000000     4.133000000
H     3.873000000    -0.227000000     5.024000000
H     4.538000000     1.043000000     4.099000000
C     3.879000000    -0.636000000     2.934000000
C     4.283000000    -0.186000000     1.690000000
C     4.290000000    -1.017000000     0.588000000
H     4.496000000    -0.626000000    -0.405000000
C     3.872000000    -2.315000000     0.723000000
O     3.848000000    -3.152000000    -0.445000000
C     2.510000000    -3.242000000    -1.077000000
H     1.874000000    -2.459000000    -0.639000000
C     2.576000000    -3.150000000    -2.612000000
C     1.704000000    -3.849000000    -3.487000000
H     0.917000000    -4.370000000    -2.948000000
C     3.617000000    -2.409000000    -3.180000000
H     4.278000000    -1.772000000    -2.598000000
C     3.806000000    -2.349000000    -4.546000000
O     4.893000000    -1.613000000    -5.020000000
C     2.875000000    -3.069000000    -5.357000000
H     3.002000000    -3.067000000    -6.437000000
C     1.818000000    -3.721000000    -4.862000000
O     0.926000000    -4.307000000    -5.761000000
C    -0.290000000    -4.888000000    -5.319000000
C    -1.344000000    -4.100000000    -4.921000000
H    -1.313000000    -3.014000000    -4.962000000
C    -0.427000000    -6.231000000    -5.205000000
H     0.381000000    -6.901000000    -5.488000000
C    -1.713000000    -6.761000000    -4.787000000
H    -1.835000000    -7.840000000    -4.833000000
C    -2.852000000    -5.957000000    -4.638000000
H    -3.848000000    -6.374000000    -4.515000000
C    -2.604000000    -4.607000000    -4.547000000
O    -3.577000000    -3.697000000    -4.350000000
C    -4.046000000    -3.095000000    -3.204000000
C    -5.005000000    -2.053000000    -3.276000000
H    -5.428000000    -1.725000000    -4.223000000
C    -5.515000000    -1.507000000    -2.075000000
O    -6.620000000    -0.629000000    -2.111000000
C    -6.785000000     0.338000000    -1.225000000
C    -6.115000000     1.534000000    -1.407000000
H    -5.479000000     1.704000000    -2.272000000
C    -7.633000000     0.075000000    -0.160000000
H    -8.264000000    -0.794000000    -0.326000000
C    -7.763000000     1.056000000     0.748000000
H    -8.523000000     0.895000000     1.508000000
C    -7.054000000     2.228000000     0.703000000
H    -7.200000000     2.973000000     1.481000000
C    -6.206000000     2.423000000    -0.365000000
O    -5.551000000     3.611000000    -0.499000000
C    -4.431000000     4.017000000     0.217000000
C    -3.825000000     5.256000000    -0.041000000
H    -4.199000000     5.911000000    -0.824000000
C    -2.693000000     5.617000000     0.675000000
O    -2.099000000     6.817000000     0.420000000
C    -0.685000000     7.020000000     0.521000000
C     0.281000000     6.428000000    -0.349000000
H    -0.006000000     5.745000000    -1.145000000
C    -0.339000000     8.047000000     1.391000000
H    -1.020000000     8.543000000     2.079000000
C     1.010000000     8.286000000     1.539000000
H     1.284000000     8.986000000     2.324000000
C     2.006000000     7.705000000     0.785000000
H     3.076000000     7.851000000     0.910000000
C     1.618000000     6.839000000    -0.218000000
O     2.567000000     6.356000000    -1.052000000
C     3.150000000     5.131000000    -0.960000000
C     3.692000000     4.582000000    -2.117000000
H     3.652000000     5.189000000    -3.019000000
C     4.263000000     3.306000000    -2.117000000
O     4.665000000     2.781000000    -3.389000000
C     5.409000000     1.641000000    -3.615000000
C     6.582000000     1.459000000    -2.919000000
H     6.977000000     2.184000000    -2.212000000
C     7.243000000     0.227000000    -2.925000000
H     8.104000000     0.115000000    -2.272000000
C     6.711000000    -0.832000000    -3.677000000
H     7.200000000    -1.802000000    -3.639000000
C     5.501000000    -0.570000000    -4.371000000
C     4.855000000     0.640000000    -4.384000000
H     3.873000000     0.774000000    -4.831000000
O     2.822000000     3.796000000    -5.903000000
H     2.652000000     2.976000000    -5.439000000
H     2.021000000     4.308000000    -5.787000000
O    -1.560000000     3.083000000    -1.668000000
H    -2.334000000     3.240000000    -2.210000000
H    -1.455000000     2.131000000    -1.672000000
O     0.696000000     3.456000000    -2.895000000
H    -0.113000000     3.258000000    -2.423000000
H     1.261000000     3.868000000    -2.241000000
O    -5.001000000     1.833000000    -5.046000000
H    -5.099000000     1.565000000    -5.959000000
H    -4.266000000     1.313000000    -4.721000000
O    -1.754000000     4.282000000    -7.666000000
H    -2.685000000     4.305000000    -7.886000000
H    -1.530000000     3.351000000    -7.668000000
O    -3.398000000    -0.211000000    -7.114000000
H    -3.068000000    -0.612000000    -6.310000000
H    -3.670000000    -0.951000000    -7.656000000
O    -3.918000000     3.628000000    -3.090000000
H    -4.661000000     4.084000000    -2.695000000
H    -4.306000000     3.091000000    -3.781000000
O     0.818000000     1.375000000    -9.044000000
H     1.506000000     1.864000000    -8.593000000
H     0.138000000     1.252000000    -8.381000000
O     1.403000000     1.594000000    -4.791000000
H     0.956000000     2.203000000    -4.204000000
H     0.777000000     0.882000000    -4.921000000
O    -5.067000000    -2.059000000    -8.158000000
H    -5.665000000    -1.656000000    -7.529000000
H    -5.475000000    -2.898000000    -8.373000000
O    -4.366000000     3.909000000    -8.461000000
H    -4.937000000     4.383000000    -9.066000000
H    -4.755000000     3.036000000    -8.400000000
O    -1.260000000     1.412000000    -7.394000000
H    -1.903000000     0.710000000    -7.489000000
H    -0.976000000     1.356000000    -6.482000000
O    -0.835000000    -2.554000000    -9.700000000
H    -1.751000000    -2.502000000    -9.971000000
H    -0.827000000    -2.199000000    -8.811000000
O    -0.202000000    -2.045000000    -7.038000000
H     0.076000000    -2.771000000    -6.480000000
H    -0.190000000    -1.281000000    -6.462000000
O     0.457000000     5.307000000    -4.778000000
H    -0.456000000     5.227000000    -5.054000000
H     0.554000000     4.660000000    -4.080000000
O    -2.284000000     5.003000000    -4.973000000
H    -2.630000000     4.593000000    -5.765000000
H    -2.732000000     4.554000000    -4.256000000
O    -5.763000000     1.546000000    -7.626000000
H    -6.637000000     1.155000000    -7.642000000
H    -5.169000000     0.802000000    -7.531000000
O    -5.493000000     4.441000000    -6.056000000
H    -5.349000000     3.596000000    -5.631000000
H    -5.279000000     4.286000000    -6.976000000
O    -7.776000000     1.224000000    -4.488000000
H    -6.861000000     1.471000000    -4.625000000
H    -8.143000000     1.944000000    -3.974000000
