201
-1219.95152
C    -4.001000000    -2.941000000    -1.548000000
H    -4.435000000    -3.042000000    -0.557000000
C    -2.719000000    -3.397000000    -1.841000000
C    -2.268000000    -3.310000000    -3.134000000
H    -1.305000000    -3.761000000    -3.359000000
C    -1.786000000    -3.759000000    -0.685000000
O    -2.502000000    -4.156000000     0.451000000
H    -1.293000000    -2.834000000    -0.352000000
O    -0.794000000    -4.775000000    -1.097000000
C     0.431000000    -4.643000000    -0.535000000
C     1.438000000    -4.170000000    -1.350000000
H     1.247000000    -4.175000000    -2.421000000
C     2.638000000    -3.847000000    -0.841000000
O     3.599000000    -3.331000000    -1.732000000
C     2.930000000    -3.815000000     0.509000000
C     4.263000000    -3.390000000     1.023000000
H     4.583000000    -3.919000000     1.924000000
C     4.323000000    -1.846000000     1.376000000
C     4.017000000    -1.488000000     2.726000000
H     3.777000000    -2.338000000     3.359000000
H     5.141000000    -3.706000000     0.457000000
C     1.868000000    -4.204000000     1.341000000
H     2.096000000    -4.269000000     2.402000000
C     0.642000000    -4.710000000     0.856000000
C    -0.384000000    -5.283000000     1.820000000
H     0.055000000    -5.855000000     2.641000000
H    -0.986000000    -5.993000000     1.248000000
C    -1.217000000    -4.178000000     2.434000000
C    -0.734000000    -3.525000000     3.555000000
H     0.155000000    -3.994000000     3.968000000
C    -2.222000000    -3.625000000     1.680000000
C    -2.777000000    -2.488000000     2.005000000
H    -3.440000000    -2.026000000     1.278000000
C    -2.490000000    -1.870000000     3.183000000
O    -3.079000000    -0.690000000     3.393000000
C    -2.463000000     0.529000000     3.101000000
C    -3.371000000     1.448000000     2.274000000
C    -3.023000000     2.768000000     1.888000000
H    -2.039000000     3.073000000     2.233000000
C    -4.673000000     0.991000000     1.887000000
H    -5.038000000     0.078000000     2.352000000
O    -1.936000000     1.078000000     4.339000000
H    -1.621000000     0.445000000     2.400000000
C    -1.409000000    -2.355000000     3.975000000
C    -1.081000000    -1.531000000     5.235000000
H    -0.614000000    -2.196000000     5.965000000
H    -2.050000000    -1.232000000     5.638000000
C    -0.105000000    -0.317000000     4.924000000
C     1.290000000    -0.524000000     4.897000000
H     1.747000000    -1.488000000     5.107000000
C    -0.633000000     0.939000000     4.598000000
C     0.212000000     2.035000000     4.255000000
H    -0.199000000     2.995000000     3.953000000
C     1.622000000     1.831000000     4.266000000
O     2.416000000     2.715000000     3.761000000
C     2.901000000     2.635000000     2.377000000
C     2.717000000     3.918000000     1.567000000
C     1.723000000     4.797000000     1.994000000
H     1.367000000     4.787000000     3.021000000
C     3.382000000     4.193000000     0.329000000
H     4.073000000     3.456000000    -0.071000000
O     4.221000000     2.117000000     2.341000000
H     2.246000000     1.937000000     1.835000000
C     2.092000000     0.519000000     4.510000000
C     3.609000000     0.205000000     4.493000000
H     3.744000000    -0.585000000     5.234000000
H     4.103000000     1.091000000     4.895000000
C     4.033000000    -0.188000000     3.108000000
C     4.360000000     0.794000000     2.112000000
C     4.588000000     0.417000000     0.778000000
H     4.683000000     1.184000000     0.014000000
C     4.508000000    -0.908000000     0.411000000
O     4.785000000    -1.225000000    -0.903000000
C     3.723000000    -1.888000000    -1.664000000
H     2.752000000    -1.633000000    -1.215000000
C     3.574000000    -1.315000000    -3.081000000
C     3.023000000    -2.107000000    -4.133000000
H     2.954000000    -3.177000000    -3.950000000
C     3.709000000     0.084000000    -3.319000000
H     4.078000000     0.773000000    -2.563000000
C     3.374000000     0.613000000    -4.550000000
O     3.414000000     1.979000000    -4.736000000
C     2.772000000    -0.144000000    -5.512000000
H     2.540000000     0.288000000    -6.482000000
C     2.622000000    -1.512000000    -5.291000000
O     2.201000000    -2.240000000    -6.371000000
C     1.023000000    -2.957000000    -6.413000000
C    -0.071000000    -2.336000000    -5.913000000
H    -0.007000000    -1.308000000    -5.567000000
C     0.928000000    -4.238000000    -6.916000000
H     1.849000000    -4.667000000    -7.303000000
C    -0.315000000    -4.929000000    -6.961000000
H    -0.359000000    -5.957000000    -7.312000000
C    -1.414000000    -4.315000000    -6.391000000
H    -2.320000000    -4.912000000    -6.319000000
C    -1.306000000    -3.020000000    -5.865000000
O    -2.416000000    -2.404000000    -5.338000000
C    -3.035000000    -2.748000000    -4.145000000
C    -4.320000000    -2.284000000    -3.890000000
H    -4.729000000    -1.682000000    -4.698000000
C    -4.800000000    -2.391000000    -2.594000000
O    -6.078000000    -1.908000000    -2.378000000
C    -6.524000000    -1.594000000    -1.170000000
C    -6.362000000    -0.263000000    -0.778000000
H    -5.519000000     0.311000000    -1.154000000
C    -7.293000000    -2.426000000    -0.366000000
H    -7.505000000    -3.434000000    -0.713000000
C    -7.988000000    -2.021000000     0.764000000
H    -8.515000000    -2.694000000     1.435000000
C    -7.904000000    -0.709000000     1.051000000
H    -8.392000000    -0.223000000     1.892000000
C    -6.991000000     0.129000000     0.370000000
O    -6.758000000     1.380000000     0.877000000
C    -5.527000000     1.820000000     1.241000000
C    -5.107000000     3.085000000     0.858000000
H    -5.745000000     3.790000000     0.332000000
C    -3.873000000     3.560000000     1.181000000
O    -3.622000000     4.942000000     1.014000000
C    -2.750000000     5.766000000     1.746000000
C    -1.385000000     5.968000000     1.374000000
H    -1.097000000     5.417000000     0.482000000
C    -3.248000000     6.381000000     2.885000000
H    -4.294000000     6.228000000     3.138000000
C    -2.358000000     7.046000000     3.770000000
H    -2.684000000     7.498000000     4.703000000
C    -1.014000000     7.167000000     3.396000000
H    -0.296000000     7.694000000     4.018000000
C    -0.552000000     6.663000000     2.184000000
O     0.740000000     6.909000000     1.926000000
C     1.480000000     5.944000000     1.290000000
C     2.106000000     6.212000000     0.063000000
H     1.965000000     7.170000000    -0.430000000
C     3.098000000     5.353000000    -0.435000000
O     3.718000000     5.616000000    -1.605000000
C     4.336000000     4.704000000    -2.480000000
C     5.681000000     4.881000000    -2.791000000
H     6.187000000     5.675000000    -2.247000000
C     6.372000000     3.865000000    -3.496000000
H     7.451000000     3.956000000    -3.581000000
C     5.597000000     2.886000000    -4.152000000
H     6.072000000     2.118000000    -4.757000000
C     4.191000000     2.848000000    -4.019000000
C     3.554000000     3.792000000    -3.152000000
H     2.468000000     3.838000000    -3.126000000
O    -6.983000000     2.673000000    -2.676000000
H    -7.628000000     2.527000000    -1.984000000
H    -7.502000000     2.746000000    -3.476000000
O     0.990000000     3.168000000    -5.726000000
H     1.499000000     2.730000000    -5.044000000
H     0.115000000     2.786000000    -5.655000000
O    -6.984000000    -1.884000000    -5.317000000
H    -7.919000000    -1.923000000    -5.118000000
H    -6.795000000    -0.950000000    -5.403000000
O    -1.986000000     3.769000000    -1.499000000
H    -1.794000000     2.890000000    -1.826000000
H    -2.921000000     3.749000000    -1.293000000
O    -5.846000000     0.830000000    -5.139000000
H    -4.992000000     1.086000000    -4.789000000
H    -6.251000000     1.654000000    -5.410000000
O    -6.023000000     0.943000000    -8.926000000
H    -5.365000000     0.903000000    -8.232000000
H    -5.862000000     1.780000000    -9.362000000
O    -5.167000000     4.186000000    -6.985000000
H    -4.887000000     4.974000000    -7.451000000
H    -4.695000000     4.219000000    -6.153000000
O    -0.034000000     1.046000000    -7.834000000
H    -0.523000000     1.626000000    -8.418000000
H    -0.441000000     1.170000000    -6.977000000
O    -2.132000000     3.547000000    -8.401000000
H    -1.491000000     4.257000000    -8.407000000
H    -2.518000000     3.579000000    -7.525000000
O    -0.700000000     5.557000000    -5.045000000
H     0.000000000     5.194000000    -5.588000000
H    -1.300000000     4.824000000    -4.905000000
O    -3.967000000     0.279000000    -7.167000000
H    -3.220000000     0.778000000    -6.838000000
H    -4.464000000     0.047000000    -6.382000000
O    -0.202000000    -1.532000000    -8.908000000
H    -0.063000000    -1.834000000    -8.010000000
H    -0.355000000    -0.591000000    -8.824000000
O    -2.852000000     3.791000000    -5.317000000
H    -3.005000000     4.108000000    -4.427000000
H    -2.961000000     2.842000000    -5.255000000
O    -4.111000000    -1.424000000    -9.472000000
H    -4.059000000    -0.889000000    -8.679000000
H    -5.029000000    -1.689000000    -9.522000000
O    -4.213000000     2.830000000    -2.476000000
H    -4.013000000     2.264000000    -3.221000000
H    -5.157000000     2.730000000    -2.346000000
O    -0.704000000     6.513000000    -2.253000000
H    -0.803000000     5.723000000    -1.723000000
H    -0.567000000     6.189000000    -3.143000000
O     2.798000000     4.365000000    -7.475000000
H     2.177000000     3.762000000    -7.064000000
H     3.410000000     3.796000000    -7.942000000
O    -7.454000000     2.755000000    -6.512000000
H    -7.698000000     2.248000000    -7.286000000
H    -6.722000000     3.299000000    -6.803000000
O    -1.393000000     2.576000000   -10.785000000
H    -1.727000000     1.777000000   -11.191000000
H    -1.976000000     2.729000000   -10.041000000
