201
-1265.80584
C    -3.398000000    -2.761000000    -2.331000000
H    -3.772000000    -2.381000000    -1.384000000
C    -2.261000000    -3.540000000    -2.180000000
C    -1.558000000    -3.848000000    -3.350000000
H    -0.658000000    -4.457000000    -3.306000000
C    -1.568000000    -3.891000000    -0.847000000
O    -2.469000000    -4.443000000     0.083000000
H    -1.211000000    -2.935000000    -0.434000000
O    -0.496000000    -4.795000000    -1.026000000
C     0.634000000    -4.609000000    -0.198000000
C     1.772000000    -4.100000000    -0.855000000
H     1.798000000    -3.964000000    -1.933000000
C     2.955000000    -3.761000000    -0.198000000
O     3.932000000    -3.019000000    -0.908000000
C     2.989000000    -3.848000000     1.210000000
C     4.153000000    -3.301000000     1.998000000
H     4.245000000    -3.849000000     2.938000000
C     4.110000000    -1.763000000     2.383000000
C     3.522000000    -1.365000000     3.610000000
H     3.103000000    -2.045000000     4.348000000
H     5.064000000    -3.525000000     1.441000000
C     1.844000000    -4.378000000     1.810000000
H     1.904000000    -4.357000000     2.895000000
C     0.644000000    -4.685000000     1.193000000
C    -0.556000000    -5.228000000     1.996000000
H    -0.060000000    -5.557000000     2.912000000
H    -1.032000000    -6.131000000     1.610000000
C    -1.655000000    -4.183000000     2.303000000
C    -1.436000000    -3.393000000     3.441000000
H    -0.659000000    -3.606000000     4.171000000
C    -2.540000000    -3.841000000     1.323000000
C    -3.491000000    -2.836000000     1.542000000
H    -4.384000000    -2.794000000     0.924000000
C    -3.294000000    -2.054000000     2.717000000
O    -4.067000000    -0.902000000     2.800000000
C    -3.327000000     0.265000000     2.438000000
C    -4.143000000     1.196000000     1.549000000
C    -3.727000000     2.523000000     1.400000000
H    -2.933000000     2.917000000     2.030000000
C    -5.163000000     0.671000000     0.687000000
H    -5.379000000    -0.392000000     0.745000000
O    -2.981000000     1.001000000     3.728000000
H    -2.402000000    -0.033000000     1.922000000
C    -2.282000000    -2.293000000     3.629000000
C    -2.084000000    -1.426000000     4.911000000
H    -1.716000000    -2.071000000     5.711000000
H    -3.008000000    -1.041000000     5.347000000
C    -1.144000000    -0.286000000     4.717000000
C     0.215000000    -0.452000000     5.021000000
H     0.679000000    -1.365000000     5.387000000
C    -1.618000000     0.878000000     4.066000000
C    -0.712000000     1.932000000     3.825000000
H    -0.998000000     2.865000000     3.346000000
C     0.628000000     1.864000000     4.220000000
O     1.469000000     2.918000000     3.919000000
C     2.237000000     2.817000000     2.767000000
C     2.338000000     4.186000000     2.097000000
C     1.175000000     4.960000000     2.019000000
H     0.287000000     4.627000000     2.551000000
C     3.440000000     4.480000000     1.313000000
H     4.251000000     3.769000000     1.180000000
O     3.559000000     2.281000000     3.140000000
H     1.771000000     2.115000000     2.060000000
C     1.105000000     0.653000000     4.829000000
C     2.593000000     0.407000000     5.161000000
H     2.782000000    -0.361000000     5.913000000
H     3.090000000     1.305000000     5.535000000
C     3.339000000    -0.009000000     3.897000000
C     3.796000000     0.903000000     2.939000000
C     4.414000000     0.556000000     1.750000000
H     4.807000000     1.270000000     1.030000000
C     4.532000000    -0.817000000     1.439000000
O     4.865000000    -1.088000000     0.132000000
C     3.869000000    -1.648000000    -0.770000000
H     2.913000000    -1.399000000    -0.286000000
C     3.699000000    -0.882000000    -2.109000000
C     3.216000000    -1.521000000    -3.234000000
H     2.886000000    -2.557000000    -3.211000000
C     4.023000000     0.438000000    -2.109000000
H     4.287000000     1.061000000    -1.258000000
C     3.718000000     1.218000000    -3.245000000
O     3.960000000     2.562000000    -3.338000000
C     3.343000000     0.572000000    -4.429000000
H     3.291000000     1.072000000    -5.393000000
C     2.995000000    -0.796000000    -4.401000000
O     2.839000000    -1.458000000    -5.607000000
C     2.132000000    -2.653000000    -5.842000000
C     0.742000000    -2.657000000    -5.630000000
H     0.159000000    -1.756000000    -5.458000000
C     2.764000000    -3.800000000    -6.338000000
H     3.830000000    -3.766000000    -6.545000000
C     2.047000000    -4.871000000    -6.780000000
H     2.644000000    -5.640000000    -7.262000000
C     0.681000000    -4.932000000    -6.511000000
H     0.139000000    -5.831000000    -6.791000000
C     0.063000000    -3.875000000    -5.886000000
O    -1.321000000    -3.900000000    -5.728000000
C    -2.010000000    -3.587000000    -4.596000000
C    -3.176000000    -2.870000000    -4.735000000
H    -3.440000000    -2.514000000    -5.728000000
C    -3.889000000    -2.507000000    -3.624000000
O    -4.950000000    -1.626000000    -3.837000000
C    -6.005000000    -1.498000000    -2.951000000
C    -6.084000000    -0.268000000    -2.287000000
H    -5.363000000     0.518000000    -2.499000000
C    -6.878000000    -2.548000000    -2.709000000
H    -6.788000000    -3.507000000    -3.212000000
C    -7.983000000    -2.258000000    -1.935000000
H    -8.765000000    -2.984000000    -1.727000000
C    -8.044000000    -1.094000000    -1.203000000
H    -8.941000000    -0.879000000    -0.628000000
C    -7.111000000    -0.066000000    -1.367000000
O    -7.141000000     1.082000000    -0.643000000
C    -5.943000000     1.538000000    -0.081000000
C    -5.500000000     2.865000000    -0.311000000
H    -6.064000000     3.534000000    -0.956000000
C    -4.375000000     3.294000000     0.408000000
O    -3.910000000     4.588000000     0.060000000
C    -3.224000000     5.387000000     0.900000000
C    -1.864000000     5.598000000     0.656000000
H    -1.395000000     5.211000000    -0.246000000
C    -3.856000000     5.917000000     2.007000000
H    -4.898000000     5.738000000     2.258000000
C    -3.117000000     6.827000000     2.829000000
H    -3.649000000     7.456000000     3.539000000
C    -1.762000000     7.119000000     2.538000000
H    -1.195000000     7.895000000     3.045000000
C    -1.164000000     6.439000000     1.494000000
O     0.101000000     6.906000000     1.078000000
C     1.218000000     6.133000000     1.285000000
C     2.377000000     6.470000000     0.580000000
H     2.347000000     7.425000000     0.061000000
C     3.483000000     5.663000000     0.569000000
O     4.683000000     5.910000000    -0.181000000
C     5.192000000     5.101000000    -1.110000000
C     6.612000000     4.828000000    -1.062000000
H     7.153000000     5.409000000    -0.320000000
C     7.149000000     3.827000000    -1.902000000
H     8.204000000     3.575000000    -1.974000000
C     6.248000000     3.072000000    -2.694000000
H     6.539000000     2.175000000    -3.234000000
C     4.837000000     3.249000000    -2.576000000
C     4.331000000     4.360000000    -1.977000000
H     3.259000000     4.536000000    -1.954000000
O    -3.927000000     1.219000000    -5.382000000
H    -3.692000000     1.831000000    -4.685000000
H    -4.873000000     1.103000000    -5.288000000
O     2.679000000     5.786000000    -5.370000000
H     2.412000000     5.067000000    -4.798000000
H     2.252000000     5.598000000    -6.206000000
O    -6.042000000     3.485000000    -3.759000000
H    -5.279000000     3.155000000    -3.286000000
H    -6.590000000     2.712000000    -3.899000000
O    -2.978000000     3.342000000    -7.357000000
H    -3.279000000     2.515000000    -6.981000000
H    -3.733000000     3.926000000    -7.285000000
O    -5.417000000     7.423000000    -0.322000000
H    -5.827000000     7.024000000     0.445000000
H    -4.481000000     7.259000000    -0.206000000
O    -0.129000000     0.150000000    -7.341000000
H     0.010000000     0.701000000    -8.111000000
H     0.281000000     0.633000000    -6.623000000
O    -0.977000000     4.909000000    -8.310000000
H    -1.615000000     4.260000000    -8.015000000
H    -1.146000000     5.676000000    -7.762000000
O    -1.408000000     6.295000000    -5.663000000
H    -0.632000000     6.802000000    -5.424000000
H    -1.816000000     6.074000000    -4.826000000
O    -4.118000000     8.617000000    -3.527000000
H    -3.751000000     7.837000000    -3.112000000
H    -5.050000000     8.422000000    -3.622000000
O    -0.736000000     2.502000000    -5.434000000
H    -1.359000000     3.093000000    -5.012000000
H    -0.755000000     1.710000000    -4.896000000
O    -8.096000000     5.512000000    -4.278000000
H    -7.699000000     4.642000000    -4.324000000
H    -7.363000000     6.101000000    -4.097000000
O     1.355000000     3.859000000    -4.088000000
H     1.788000000     3.019000000    -3.935000000
H     0.604000000     3.644000000    -4.642000000
O     0.033000000     5.716000000    -2.698000000
H    -0.691000000     5.090000000    -2.704000000
H     0.726000000     5.286000000    -3.198000000
O    -2.709000000    -0.467000000    -6.920000000
H    -1.855000000    -0.241000000    -7.288000000
H    -2.945000000     0.287000000    -6.380000000
O    -0.922000000     0.146000000    -4.174000000
H    -1.314000000     0.408000000    -3.341000000
H    -1.474000000    -0.572000000    -4.483000000
O    -3.944000000     5.652000000    -3.510000000
H    -3.339000000     4.911000000    -3.487000000
H    -4.807000000     5.261000000    -3.378000000
O    -1.800000000     7.587000000    -1.991000000
H    -1.178000000     6.886000000    -2.182000000
H    -1.326000000     8.176000000    -1.404000000
O    -4.252000000     6.173000000    -6.284000000
H    -3.339000000     6.257000000    -6.557000000
H    -4.207000000     6.049000000    -5.336000000
O     1.625000000     3.870000000    -7.150000000
H     1.557000000     4.681000000    -7.654000000
H     0.727000000     3.685000000    -6.873000000
