201
-1235.02557
C    -4.276000000    -3.151000000    -2.272000000
H    -4.743000000    -3.198000000    -1.292000000
C    -2.833000000    -3.283000000    -2.311000000
C    -2.217000000    -3.099000000    -3.545000000
H    -1.139000000    -3.239000000    -3.522000000
C    -1.974000000    -3.559000000    -1.076000000
O    -2.913000000    -3.939000000    -0.067000000
H    -1.538000000    -2.555000000    -0.969000000
O    -1.027000000    -4.663000000    -1.435000000
C     0.154000000    -4.666000000    -0.681000000
C     1.296000000    -4.255000000    -1.373000000
H     1.314000000    -4.117000000    -2.451000000
C     2.443000000    -3.911000000    -0.777000000
O     3.510000000    -3.431000000    -1.495000000
C     2.589000000    -4.146000000     0.641000000
C     3.886000000    -3.844000000     1.464000000
H     3.946000000    -4.424000000     2.387000000
C     3.981000000    -2.364000000     1.787000000
C     3.511000000    -1.958000000     3.034000000
H     3.071000000    -2.623000000     3.772000000
H     4.716000000    -4.094000000     0.800000000
C     1.485000000    -4.548000000     1.361000000
H     1.632000000    -4.730000000     2.422000000
C     0.271000000    -4.833000000     0.719000000
C    -0.972000000    -5.263000000     1.522000000
H    -0.697000000    -5.888000000     2.374000000
H    -1.575000000    -5.965000000     0.941000000
C    -1.740000000    -4.076000000     2.060000000
C    -1.471000000    -3.458000000     3.261000000
H    -0.755000000    -3.965000000     3.903000000
C    -2.654000000    -3.498000000     1.218000000
C    -3.409000000    -2.386000000     1.614000000
H    -4.131000000    -1.976000000     0.912000000
C    -3.222000000    -1.812000000     2.834000000
O    -3.823000000    -0.607000000     3.036000000
C    -3.108000000     0.656000000     2.813000000
C    -3.981000000     1.586000000     2.016000000
C    -3.535000000     2.909000000     1.873000000
H    -2.664000000     3.225000000     2.441000000
C    -5.002000000     1.153000000     1.186000000
H    -5.272000000     0.107000000     1.305000000
O    -2.588000000     1.219000000     4.117000000
H    -2.225000000     0.587000000     2.160000000
C    -2.201000000    -2.319000000     3.670000000
C    -1.866000000    -1.600000000     4.949000000
H    -1.406000000    -2.384000000     5.554000000
H    -2.816000000    -1.250000000     5.360000000
C    -0.823000000    -0.459000000     4.737000000
C     0.525000000    -0.746000000     4.875000000
H     0.872000000    -1.758000000     5.069000000
C    -1.287000000     0.830000000     4.449000000
C    -0.319000000     1.827000000     4.191000000
H    -0.600000000     2.794000000     3.781000000
C     1.023000000     1.560000000     4.312000000
O     1.924000000     2.500000000     3.822000000
C     2.414000000     2.260000000     2.463000000
C     2.419000000     3.580000000     1.599000000
C     1.527000000     4.643000000     1.890000000
H     0.964000000     4.576000000     2.817000000
C     3.375000000     3.783000000     0.571000000
H     4.005000000     2.947000000     0.278000000
O     3.796000000     1.740000000     2.571000000
H     1.733000000     1.547000000     1.975000000
C     1.474000000     0.283000000     4.577000000
C     2.894000000    -0.054000000     4.619000000
H     3.166000000    -0.690000000     5.464000000
H     3.449000000     0.863000000     4.826000000
C     3.493000000    -0.541000000     3.340000000
C     3.897000000     0.384000000     2.420000000
C     4.421000000    -0.059000000     1.200000000
H     4.706000000     0.685000000     0.461000000
C     4.465000000    -1.412000000     0.913000000
O     4.833000000    -1.951000000    -0.329000000
C     3.726000000    -2.031000000    -1.273000000
H     2.886000000    -1.537000000    -0.764000000
C     3.943000000    -1.162000000    -2.502000000
C     2.956000000    -1.215000000    -3.506000000
H     2.107000000    -1.874000000    -3.342000000
C     4.947000000    -0.235000000    -2.594000000
H     5.615000000     0.030000000    -1.779000000
C     5.137000000     0.481000000    -3.698000000
O     6.136000000     1.432000000    -3.772000000
C     4.319000000     0.315000000    -4.833000000
H     4.467000000     0.939000000    -5.711000000
C     3.162000000    -0.493000000    -4.694000000
O     2.259000000    -0.630000000    -5.785000000
C     1.314000000    -1.591000000    -5.845000000
C    -0.022000000    -1.345000000    -5.670000000
H    -0.245000000    -0.304000000    -5.448000000
C     1.758000000    -2.876000000    -6.085000000
H     2.826000000    -3.054000000    -6.178000000
C     0.815000000    -3.934000000    -6.334000000
H     1.125000000    -4.950000000    -6.568000000
C    -0.540000000    -3.652000000    -6.324000000
H    -1.232000000    -4.470000000    -6.506000000
C    -0.949000000    -2.348000000    -5.950000000
O    -2.256000000    -2.068000000    -5.692000000
C    -2.913000000    -2.610000000    -4.541000000
C    -4.263000000    -2.323000000    -4.478000000
H    -4.808000000    -1.939000000    -5.336000000
C    -4.954000000    -2.606000000    -3.354000000
O    -6.244000000    -2.348000000    -3.245000000
C    -6.739000000    -1.686000000    -2.182000000
C    -6.621000000    -0.311000000    -1.957000000
H    -6.219000000     0.248000000    -2.798000000
C    -7.446000000    -2.466000000    -1.217000000
H    -7.566000000    -3.521000000    -1.447000000
C    -7.912000000    -1.879000000    -0.059000000
H    -8.300000000    -2.569000000     0.686000000
C    -7.761000000    -0.508000000     0.163000000
H    -8.165000000     0.005000000     1.033000000
C    -7.047000000     0.270000000    -0.721000000
O    -6.724000000     1.566000000    -0.426000000
C    -5.612000000     1.969000000     0.278000000
C    -5.223000000     3.254000000     0.149000000
H    -5.756000000     3.972000000    -0.469000000
C    -4.160000000     3.747000000     0.976000000
O    -3.718000000     5.056000000     0.757000000
C    -2.910000000     5.738000000     1.583000000
C    -1.740000000     6.183000000     0.987000000
H    -1.528000000     6.187000000    -0.079000000
C    -3.127000000     5.794000000     2.950000000
H    -4.063000000     5.436000000     3.371000000
C    -2.106000000     6.256000000     3.745000000
H    -2.206000000     6.247000000     4.827000000
C    -0.917000000     6.604000000     3.219000000
H    -0.107000000     6.956000000     3.854000000
C    -0.724000000     6.546000000     1.846000000
O     0.574000000     6.817000000     1.421000000
C     1.552000000     5.841000000     1.199000000
C     2.523000000     5.984000000     0.195000000
H     2.531000000     6.832000000    -0.485000000
C     3.422000000     4.969000000    -0.115000000
O     4.125000000     5.112000000    -1.314000000
C     5.286000000     4.390000000    -1.678000000
C     6.571000000     4.897000000    -1.483000000
H     6.625000000     5.848000000    -0.959000000
C     7.705000000     4.181000000    -1.862000000
H     8.649000000     4.707000000    -1.751000000
C     7.532000000     3.076000000    -2.648000000
H     8.388000000     2.512000000    -3.007000000
C     6.264000000     2.535000000    -2.886000000
C     5.118000000     3.170000000    -2.376000000
H     4.116000000     2.907000000    -2.703000000
O    -5.351000000     3.168000000    -2.944000000
H    -4.657000000     2.508000000    -2.950000000
H    -6.159000000     2.665000000    -2.839000000
O    -4.149000000     0.628000000    -7.831000000
H    -3.583000000     1.333000000    -8.148000000
H    -5.010000000     1.035000000    -7.738000000
O     1.706000000     1.944000000    -6.694000000
H     1.870000000     1.163000000    -6.164000000
H     0.754000000     1.972000000    -6.790000000
O    -4.228000000     5.803000000    -2.541000000
H    -4.325000000     4.867000000    -2.363000000
H    -3.456000000     5.860000000    -3.104000000
O    -2.439000000     4.164000000    -6.407000000
H    -2.134000000     3.836000000    -5.560000000
H    -3.219000000     4.677000000    -6.198000000
O     1.961000000     6.833000000    -5.785000000
H     2.327000000     7.313000000    -5.042000000
H     1.826000000     5.945000000    -5.453000000
O    -1.201000000     0.031000000    -9.650000000
H    -1.562000000     0.271000000    -8.797000000
H    -1.462000000     0.747000000   -10.230000000
O    -0.966000000     4.894000000    -8.360000000
H    -1.546000000     4.545000000    -9.036000000
H    -1.382000000     4.644000000    -7.535000000
O    -2.064000000     5.746000000    -4.160000000
H    -1.382000000     5.196000000    -3.774000000
H    -1.587000000     6.378000000    -4.697000000
O    -6.578000000     1.129000000    -6.298000000
H    -6.835000000     2.050000000    -6.244000000
H    -5.665000000     1.118000000    -6.009000000
O    -2.574000000     8.355000000    -1.627000000
H    -1.669000000     8.086000000    -1.779000000
H    -3.099000000     7.616000000    -1.934000000
O    -1.152000000     1.568000000    -7.137000000
H    -1.378000000     2.448000000    -7.438000000
H    -1.723000000     1.419000000    -6.383000000
O     0.031000000     7.873000000    -1.669000000
H     0.195000000     6.941000000    -1.525000000
H     0.573000000     8.316000000    -1.017000000
O     5.010000000     5.065000000    -5.784000000
H     4.324000000     4.581000000    -5.324000000
H     4.990000000     4.720000000    -6.676000000
O     1.566000000     4.244000000    -5.045000000
H     0.804000000     3.953000000    -4.545000000
H     1.742000000     3.527000000    -5.654000000
O    -4.300000000     1.040000000    -4.828000000
H    -3.449000000     1.460000000    -4.701000000
H    -4.100000000     0.231000000    -5.298000000
O     0.181000000     4.955000000    -1.528000000
H    -0.180000000     4.490000000    -2.283000000
H     0.558000000     4.267000000    -0.980000000
O    -0.280000000     7.326000000    -7.416000000
H    -0.408000000     6.414000000    -7.677000000
H     0.423000000     7.293000000    -6.767000000
O    -7.212000000     3.996000000    -5.486000000
H    -6.570000000     3.940000000    -4.777000000
H    -8.042000000     4.174000000    -5.043000000
