201
-1255.51499
C    -3.923000000    -2.498000000     0.836000000
H    -3.954000000    -2.052000000     1.827000000
C    -2.900000000    -3.403000000     0.471000000
C    -2.858000000    -4.007000000    -0.808000000
H    -1.983000000    -4.591000000    -1.079000000
C    -1.702000000    -3.560000000     1.438000000
O    -2.090000000    -3.372000000     2.840000000
H    -1.017000000    -2.736000000     1.192000000
O    -0.911000000    -4.750000000     1.303000000
C     0.424000000    -4.606000000     1.190000000
C     0.998000000    -4.509000000    -0.090000000
H     0.388000000    -4.709000000    -0.967000000
C     2.299000000    -4.053000000    -0.288000000
O     2.635000000    -3.852000000    -1.589000000
C     3.055000000    -3.672000000     0.796000000
C     4.434000000    -3.171000000     0.597000000
H     5.030000000    -3.408000000     1.481000000
C     4.518000000    -1.670000000     0.285000000
C     4.820000000    -0.802000000     1.286000000
H     5.052000000    -1.153000000     2.288000000
H     4.801000000    -3.643000000    -0.317000000
C     2.500000000    -3.658000000     2.047000000
H     3.176000000    -3.253000000     2.795000000
C     1.217000000    -4.111000000     2.266000000
C     0.644000000    -4.116000000     3.631000000
H     1.475000000    -4.173000000     4.337000000
H     0.048000000    -5.010000000     3.825000000
C    -0.017000000    -2.780000000     4.069000000
C     0.700000000    -1.815000000     4.752000000
H     1.691000000    -2.020000000     5.148000000
C    -1.279000000    -2.468000000     3.576000000
C    -1.885000000    -1.201000000     3.803000000
H    -2.894000000    -0.958000000     3.479000000
C    -1.155000000    -0.296000000     4.488000000
O    -1.744000000     0.912000000     4.652000000
C    -1.364000000     2.005000000     3.792000000
C    -2.558000000     2.902000000     3.512000000
C    -2.380000000     4.223000000     3.105000000
H    -1.430000000     4.745000000     3.191000000
C    -3.790000000     2.300000000     3.451000000
H    -3.959000000     1.274000000     3.767000000
O    -0.260000000     2.807000000     4.347000000
H    -0.963000000     1.635000000     2.837000000
C     0.134000000    -0.606000000     5.025000000
C     1.099000000     0.488000000     5.621000000
H     1.840000000     0.122000000     6.334000000
H     0.399000000     1.139000000     6.151000000
C     1.693000000     1.456000000     4.449000000
C     2.935000000     1.044000000     3.826000000
H     3.470000000     0.148000000     4.128000000
C     0.970000000     2.513000000     3.878000000
C     1.502000000     3.280000000     2.835000000
H     0.823000000     4.072000000     2.529000000
C     2.683000000     2.998000000     2.272000000
O     3.154000000     3.659000000     1.159000000
C     3.225000000     2.846000000    -0.085000000
C     2.638000000     3.691000000    -1.230000000
C     1.482000000     4.475000000    -0.958000000
H     1.023000000     4.515000000     0.026000000
C     3.113000000     3.638000000    -2.541000000
H     4.049000000     3.092000000    -2.626000000
O     4.619000000     2.416000000    -0.379000000
H     2.594000000     1.949000000     0.002000000
C     3.389000000     1.833000000     2.733000000
C     4.799000000     1.498000000     2.294000000
H     5.304000000     1.040000000     3.147000000
H     5.417000000     2.374000000     2.084000000
C     4.805000000     0.526000000     1.078000000
C     4.736000000     1.055000000    -0.223000000
C     4.518000000     0.203000000    -1.231000000
H     4.282000000     0.673000000    -2.182000000
C     4.293000000    -1.115000000    -1.007000000
O     3.914000000    -1.898000000    -2.074000000
C     2.546000000    -2.498000000    -2.110000000
H     1.918000000    -1.828000000    -1.506000000
C     1.963000000    -2.568000000    -3.482000000
C     1.287000000    -3.726000000    -3.985000000
H     1.077000000    -4.635000000    -3.427000000
C     2.007000000    -1.473000000    -4.382000000
H     2.397000000    -0.527000000    -4.015000000
C     1.450000000    -1.439000000    -5.636000000
O     1.395000000    -0.267000000    -6.332000000
C     0.825000000    -2.616000000    -6.166000000
H     0.329000000    -2.739000000    -7.126000000
C     0.686000000    -3.703000000    -5.306000000
O    -0.183000000    -4.695000000    -5.720000000
C    -1.187000000    -5.270000000    -4.953000000
C    -2.005000000    -4.469000000    -4.214000000
H    -1.920000000    -3.394000000    -4.350000000
C    -1.345000000    -6.646000000    -5.075000000
H    -0.840000000    -7.196000000    -5.865000000
C    -2.337000000    -7.273000000    -4.244000000
H    -2.497000000    -8.339000000    -4.389000000
C    -3.170000000    -6.456000000    -3.462000000
H    -4.027000000    -6.830000000    -2.907000000
C    -2.988000000    -5.058000000    -3.538000000
O    -3.877000000    -4.214000000    -3.022000000
C    -3.823000000    -3.690000000    -1.760000000
C    -4.873000000    -2.820000000    -1.384000000
H    -5.562000000    -2.505000000    -2.163000000
C    -4.893000000    -2.194000000    -0.109000000
O    -5.886000000    -1.305000000     0.098000000
C    -6.158000000    -0.701000000     1.285000000
C    -6.124000000     0.675000000     1.404000000
H    -5.923000000     1.210000000     0.478000000
C    -6.544000000    -1.479000000     2.409000000
H    -6.620000000    -2.546000000     2.218000000
C    -6.852000000    -0.869000000     3.633000000
H    -7.110000000    -1.515000000     4.469000000
C    -6.715000000     0.527000000     3.712000000
H    -6.713000000     0.971000000     4.705000000
C    -6.401000000     1.299000000     2.606000000
O    -6.199000000     2.652000000     2.803000000
C    -4.906000000     3.084000000     3.033000000
C    -4.725000000     4.454000000     2.605000000
H    -5.521000000     4.956000000     2.060000000
C    -3.471000000     4.962000000     2.637000000
O    -3.270000000     6.209000000     2.167000000
C    -2.128000000     6.490000000     1.473000000
C    -1.841000000     5.947000000     0.204000000
H    -2.590000000     5.274000000    -0.205000000
C    -1.294000000     7.412000000     2.111000000
H    -1.496000000     7.726000000     3.132000000
C    -0.127000000     7.782000000     1.516000000
H     0.586000000     8.443000000     2.003000000
C     0.079000000     7.370000000     0.194000000
H     0.799000000     7.898000000    -0.425000000
C    -0.709000000     6.463000000    -0.414000000
O    -0.278000000     6.010000000    -1.696000000
C     0.800000000     5.152000000    -1.991000000
C     1.295000000     4.984000000    -3.342000000
H     0.810000000     5.401000000    -4.221000000
C     2.351000000     4.194000000    -3.593000000
O     2.738000000     4.053000000    -4.872000000
C     3.046000000     2.868000000    -5.512000000
C     4.374000000     2.608000000    -5.771000000
H     5.160000000     3.298000000    -5.475000000
C     4.685000000     1.365000000    -6.268000000
H     5.725000000     1.181000000    -6.527000000
C     3.708000000     0.365000000    -6.416000000
H     3.942000000    -0.686000000    -6.565000000
C     2.349000000     0.696000000    -6.228000000
C     2.013000000     1.964000000    -5.780000000
H     0.990000000     2.308000000    -5.652000000
O    -1.534000000    -0.444000000    -4.866000000
H    -2.105000000    -0.468000000    -4.098000000
H    -0.662000000    -0.273000000    -4.511000000
O    -3.236000000    -0.770000000    -2.730000000
H    -3.466000000    -1.456000000    -2.103000000
H    -3.895000000    -0.089000000    -2.592000000
O    -7.199000000     7.682000000    -3.236000000
H    -7.665000000     7.971000000    -2.450000000
H    -6.280000000     7.652000000    -2.972000000
O    -5.274000000     1.361000000    -2.443000000
H    -6.211000000     1.357000000    -2.249000000
H    -4.912000000     2.027000000    -1.858000000
O    -4.886000000     7.776000000    -0.521000000
H    -4.662000000     7.794000000    -1.452000000
H    -5.279000000     6.913000000    -0.387000000
O    -4.030000000     8.196000000    -2.997000000
H    -3.596000000     7.510000000    -3.505000000
H    -4.053000000     8.951000000    -3.585000000
O    -7.785000000     3.700000000     0.236000000
H    -7.576000000     3.367000000     1.109000000
H    -8.653000000     4.092000000     0.331000000
O    -2.028000000     2.932000000    -5.272000000
H    -1.735000000     3.223000000    -4.409000000
H    -2.900000000     2.567000000    -5.119000000
O    -2.533000000     5.557000000    -6.497000000
H    -2.373000000     5.625000000    -5.556000000
H    -2.466000000     4.621000000    -6.684000000
O    -6.702000000     3.060000000    -6.103000000
H    -6.391000000     2.341000000    -6.652000000
H    -5.921000000     3.363000000    -5.640000000
O    -7.440000000     3.882000000    -3.434000000
H    -6.502000000     4.069000000    -3.483000000
H    -7.581000000     3.195000000    -4.086000000
O    -4.756000000     4.264000000    -4.417000000
H    -4.323000000     5.104000000    -4.570000000
H    -4.213000000     3.831000000    -3.757000000
O    -2.078000000     5.937000000    -3.669000000
H    -2.361000000     5.161000000    -3.185000000
H    -1.465000000     6.377000000    -3.079000000
O    -5.728000000     5.244000000    -0.924000000
H    -6.488000000     4.687000000    -0.759000000
H    -5.022000000     4.632000000    -1.131000000
O    -2.534000000     2.579000000    -8.644000000
H    -2.417000000     1.631000000    -8.703000000
H    -2.585000000     2.756000000    -7.705000000
O    -1.808000000     0.210000000    -7.499000000
H    -1.695000000     0.267000000    -6.550000000
H    -1.023000000     0.623000000    -7.858000000
O    -4.501000000     1.377000000    -4.909000000
H    -4.286000000     0.453000000    -4.781000000
H    -5.024000000     1.609000000    -4.141000000
O    -5.174000000     1.170000000    -7.528000000
H    -5.129000000     0.229000000    -7.696000000
H    -4.661000000     1.296000000    -6.729000000
O    -8.002000000     1.027000000    -1.723000000
H    -7.931000000     1.281000000    -0.803000000
H    -8.582000000     1.684000000    -2.108000000
