201
-1237.31258
C    -4.164000000    -1.353000000     3.593000000
H    -3.977000000    -1.207000000     4.654000000
C    -3.378000000    -1.976000000     2.660000000
C    -3.713000000    -2.158000000     1.325000000
H    -3.066000000    -2.641000000     0.598000000
C    -1.952000000    -2.402000000     3.103000000
O    -1.715000000    -2.119000000     4.568000000
H    -1.266000000    -1.765000000     2.525000000
O    -1.592000000    -3.772000000     2.720000000
C    -0.417000000    -3.901000000     2.066000000
C    -0.449000000    -4.242000000     0.711000000
H    -1.424000000    -4.170000000     0.235000000
C     0.728000000    -4.465000000     0.034000000
O     0.653000000    -4.634000000    -1.321000000
C     1.958000000    -4.331000000     0.700000000
C     3.221000000    -4.616000000    -0.052000000
H     4.010000000    -4.977000000     0.610000000
C     3.669000000    -3.322000000    -0.678000000
C     4.350000000    -2.310000000    -0.029000000
H     4.725000000    -2.512000000     0.971000000
H     3.025000000    -5.356000000    -0.831000000
C     1.989000000    -3.987000000     2.031000000
H     2.944000000    -3.807000000     2.519000000
C     0.836000000    -3.776000000     2.768000000
C     0.906000000    -3.456000000     4.227000000
H     1.875000000    -3.773000000     4.619000000
H     0.184000000    -4.079000000     4.759000000
C     0.646000000    -1.994000000     4.526000000
C     1.835000000    -1.219000000     4.439000000
H     2.752000000    -1.724000000     4.147000000
C    -0.582000000    -1.409000000     4.736000000
C    -0.660000000    -0.054000000     4.977000000
H    -1.578000000     0.510000000     5.118000000
C     0.497000000     0.739000000     4.776000000
O     0.339000000     2.138000000     4.833000000
C     0.509000000     2.610000000     3.448000000
C    -0.672000000     3.429000000     3.033000000
C    -0.595000000     4.182000000     1.891000000
H     0.265000000     4.219000000     1.226000000
C    -1.858000000     3.503000000     3.755000000
H    -1.914000000     3.005000000     4.720000000
O     1.826000000     3.313000000     3.131000000
H     0.553000000     1.799000000     2.705000000
C     1.750000000     0.143000000     4.601000000
C     2.980000000     0.994000000     4.486000000
H     3.858000000     0.528000000     4.938000000
H     2.895000000     1.964000000     4.981000000
C     3.272000000     1.341000000     3.021000000
C     4.194000000     0.547000000     2.340000000
H     4.625000000    -0.361000000     2.754000000
C     2.776000000     2.501000000     2.425000000
C     3.058000000     2.844000000     1.106000000
H     2.518000000     3.627000000     0.580000000
C     3.971000000     2.046000000     0.428000000
O     4.301000000     2.349000000    -0.893000000
C     3.622000000     1.625000000    -1.905000000
C     2.974000000     2.399000000    -3.082000000
C     2.299000000     3.602000000    -2.826000000
H     2.345000000     4.023000000    -1.825000000
C     2.846000000     1.834000000    -4.369000000
H     3.248000000     0.841000000    -4.551000000
O     4.341000000     0.470000000    -2.420000000
H     2.740000000     1.178000000    -1.423000000
C     4.496000000     0.875000000     1.048000000
C     5.390000000    -0.012000000     0.227000000
H     6.227000000    -0.536000000     0.694000000
H     6.053000000     0.616000000    -0.372000000
C     4.595000000    -1.042000000    -0.559000000
C     4.286000000    -0.824000000    -1.877000000
C     3.509000000    -1.797000000    -2.518000000
H     3.206000000    -1.598000000    -3.543000000
C     3.289000000    -3.072000000    -1.996000000
O     2.370000000    -3.809000000    -2.680000000
C     1.040000000    -3.611000000    -2.239000000
H     0.901000000    -2.697000000    -1.643000000
C     0.176000000    -3.402000000    -3.493000000
C    -1.184000000    -3.368000000    -3.302000000
H    -1.623000000    -3.540000000    -2.322000000
C     0.671000000    -3.081000000    -4.783000000
H     1.753000000    -3.005000000    -4.851000000
C    -0.174000000    -2.892000000    -5.911000000
O     0.332000000    -2.593000000    -7.111000000
C    -1.532000000    -2.984000000    -5.717000000
H    -2.265000000    -2.965000000    -6.519000000
C    -2.066000000    -3.254000000    -4.455000000
O    -3.431000000    -3.358000000    -4.368000000
C    -4.045000000    -3.641000000    -3.162000000
C    -4.646000000    -2.550000000    -2.430000000
H    -4.490000000    -1.519000000    -2.739000000
C    -4.282000000    -4.974000000    -2.809000000
H    -3.918000000    -5.736000000    -3.493000000
C    -5.013000000    -5.277000000    -1.626000000
H    -5.127000000    -6.327000000    -1.367000000
C    -5.344000000    -4.238000000    -0.782000000
H    -5.757000000    -4.440000000     0.204000000
C    -5.165000000    -2.943000000    -1.192000000
O    -5.540000000    -1.914000000    -0.356000000
C    -4.984000000    -1.674000000     0.950000000
C    -5.695000000    -0.846000000     1.799000000
H    -6.656000000    -0.463000000     1.465000000
C    -5.290000000    -0.693000000     3.086000000
O    -6.043000000     0.053000000     4.012000000
C    -5.619000000     1.102000000     4.787000000
C    -4.853000000     2.158000000     4.207000000
H    -4.578000000     2.038000000     3.162000000
C    -6.204000000     1.263000000     6.076000000
H    -6.882000000     0.516000000     6.482000000
C    -5.998000000     2.460000000     6.788000000
H    -6.542000000     2.722000000     7.692000000
C    -5.188000000     3.469000000     6.202000000
H    -4.928000000     4.383000000     6.730000000
C    -4.583000000     3.317000000     4.941000000
O    -3.932000000     4.407000000     4.321000000
C    -2.909000000     4.343000000     3.444000000
C    -2.767000000     5.179000000     2.334000000
H    -3.570000000     5.883000000     2.128000000
C    -1.579000000     5.118000000     1.588000000
O    -1.595000000     5.797000000     0.426000000
C    -0.536000000     6.074000000    -0.341000000
C    -0.346000000     5.652000000    -1.692000000
H    -1.109000000     4.962000000    -2.043000000
C     0.407000000     6.906000000     0.214000000
H     0.109000000     7.412000000     1.129000000
C     1.568000000     7.157000000    -0.490000000
H     2.311000000     7.800000000    -0.025000000
C     1.782000000     6.705000000    -1.750000000
H     2.664000000     7.019000000    -2.302000000
C     0.821000000     5.938000000    -2.367000000
O     0.956000000     5.429000000    -3.613000000
C     1.630000000     4.229000000    -3.867000000
C     1.543000000     3.597000000    -5.157000000
H     1.041000000     4.162000000    -5.939000000
C     2.226000000     2.413000000    -5.464000000
O     2.132000000     1.876000000    -6.682000000
C     2.235000000     0.558000000    -7.034000000
C     3.485000000     0.069000000    -7.390000000
H     4.327000000     0.754000000    -7.442000000
C     3.676000000    -1.310000000    -7.626000000
H     4.691000000    -1.644000000    -7.827000000
C     2.609000000    -2.150000000    -7.504000000
H     2.852000000    -3.206000000    -7.585000000
C     1.362000000    -1.649000000    -7.175000000
C     1.176000000    -0.305000000    -6.890000000
H     0.182000000     0.057000000    -6.642000000
O    -4.807000000    -1.628000000    -6.611000000
H    -4.679000000    -2.562000000    -6.780000000
H    -3.934000000    -1.302000000    -6.395000000
O    -7.021000000     0.033000000    -1.903000000
H    -7.287000000     0.928000000    -2.115000000
H    -6.322000000    -0.163000000    -2.525000000
O    -3.441000000     7.762000000    -0.945000000
H    -3.514000000     8.151000000    -0.073000000
H    -3.413000000     6.819000000    -0.784000000
O    -8.785000000     1.286000000    -3.858000000
H    -7.839000000     1.428000000    -3.886000000
H    -8.996000000     0.910000000    -4.713000000
O    -5.193000000     1.035000000    -6.360000000
H    -5.252000000     0.092000000    -6.512000000
H    -5.278000000     1.131000000    -5.412000000
O    -9.104000000     3.935000000    -2.755000000
H    -8.702000000     4.697000000    -3.172000000
H    -8.706000000     3.183000000    -3.194000000
O    -1.185000000     6.902000000    -4.768000000
H    -1.517000000     6.087000000    -4.391000000
H    -1.904000000     7.525000000    -4.664000000
O    -6.700000000    -1.114000000    -4.628000000
H    -7.505000000    -1.378000000    -5.076000000
H    -5.999000000    -1.359000000    -5.232000000
O    -3.038000000     1.560000000    -8.495000000
H    -3.326000000     1.105000000    -7.703000000
H    -2.618000000     2.357000000    -8.173000000
O    -2.406000000    -0.126000000    -5.489000000
H    -2.696000000     0.578000000    -4.909000000
H    -1.545000000    -0.375000000    -5.152000000
O    -5.785000000     2.218000000    -0.198000000
H    -5.253000000     2.304000000    -0.990000000
H    -6.301000000     1.425000000    -0.341000000
O    -2.339000000     4.364000000    -4.227000000
H    -2.970000000     5.044000000    -3.992000000
H    -2.732000000     3.552000000    -3.907000000
O    -4.413000000     5.910000000    -3.296000000
H    -4.519000000     5.824000000    -2.349000000
H    -4.976000000     6.647000000    -3.534000000
O    -2.054000000     2.797000000    -6.522000000
H    -2.496000000     2.349000000    -5.801000000
H    -1.745000000     3.619000000    -6.140000000
O    -6.692000000     4.940000000     0.366000000
H    -6.667000000     4.043000000     0.034000000
H    -5.814000000     5.282000000     0.198000000
O    -4.138000000     4.907000000    -0.808000000
H    -3.354000000     4.791000000    -0.270000000
H    -4.274000000     4.054000000    -1.220000000
O    -6.283000000     4.966000000    -4.797000000
H    -5.550000000     5.487000000    -4.470000000
H    -6.986000000     5.601000000    -4.934000000
O    -5.293000000     4.659000000    -7.853000000
H    -6.013000000     4.568000000    -8.476000000
H    -5.368000000     3.891000000    -7.286000000
O    -6.367000000     2.422000000    -3.593000000
H    -6.397000000     3.313000000    -3.943000000
H    -5.499000000     2.351000000    -3.196000000
