201
-1245.49118
C    -4.340000000    -1.029000000     2.844000000
H    -3.683000000    -0.396000000     3.435000000
C    -3.869000000    -2.165000000     2.195000000
C    -4.696000000    -2.761000000     1.196000000
H    -4.329000000    -3.631000000     0.658000000
C    -2.471000000    -2.579000000     2.491000000
O    -2.019000000    -2.348000000     3.833000000
H    -1.811000000    -1.995000000     1.833000000
O    -2.296000000    -4.013000000     2.219000000
C    -1.122000000    -4.350000000     1.640000000
C    -1.181000000    -4.509000000     0.221000000
H    -2.136000000    -4.415000000    -0.290000000
C    -0.052000000    -4.779000000    -0.527000000
O    -0.119000000    -4.796000000    -1.915000000
C     1.186000000    -4.833000000     0.119000000
C     2.511000000    -5.019000000    -0.600000000
H     3.193000000    -5.538000000     0.077000000
C     3.069000000    -3.622000000    -1.074000000
C     3.839000000    -2.870000000    -0.165000000
H     4.042000000    -3.197000000     0.852000000
H     2.535000000    -5.781000000    -1.382000000
C     1.222000000    -4.620000000     1.490000000
H     2.131000000    -4.628000000     2.086000000
C     0.081000000    -4.394000000     2.284000000
C     0.305000000    -4.027000000     3.773000000
H     1.209000000    -4.457000000     4.209000000
H    -0.505000000    -4.373000000     4.419000000
C     0.384000000    -2.510000000     3.996000000
C     1.583000000    -1.884000000     4.197000000
H     2.459000000    -2.513000000     4.060000000
C    -0.763000000    -1.770000000     4.032000000
C    -0.707000000    -0.336000000     4.277000000
H    -1.572000000     0.322000000     4.258000000
C     0.526000000     0.280000000     4.554000000
O     0.574000000     1.668000000     4.668000000
C     1.153000000     2.412000000     3.539000000
C     0.272000000     3.592000000     3.141000000
C     0.842000000     4.609000000     2.364000000
H     1.895000000     4.790000000     2.160000000
C    -1.101000000     3.487000000     3.398000000
H    -1.587000000     2.659000000     3.909000000
O     2.586000000     2.651000000     3.657000000
H     1.038000000     1.843000000     2.604000000
C     1.669000000    -0.518000000     4.499000000
C     3.083000000     0.149000000     4.704000000
H     3.738000000    -0.611000000     5.134000000
H     2.896000000     0.936000000     5.438000000
C     3.693000000     0.590000000     3.383000000
C     4.299000000    -0.295000000     2.531000000
H     4.124000000    -1.326000000     2.829000000
C     3.432000000     1.881000000     2.938000000
C     3.880000000     2.307000000     1.657000000
H     3.736000000     3.320000000     1.290000000
C     4.467000000     1.405000000     0.791000000
O     4.738000000     1.862000000    -0.505000000
C     3.766000000     1.447000000    -1.468000000
C     3.407000000     2.505000000    -2.476000000
C     3.580000000     3.816000000    -2.203000000
H     4.001000000     4.013000000    -1.220000000
C     2.916000000     2.193000000    -3.761000000
H     2.762000000     1.163000000    -4.072000000
O     4.239000000     0.283000000    -2.194000000
H     2.819000000     1.224000000    -0.955000000
C     4.703000000     0.077000000     1.227000000
C     5.346000000    -0.913000000     0.254000000
H     6.005000000    -1.621000000     0.761000000
H     6.079000000    -0.395000000    -0.368000000
C     4.306000000    -1.617000000    -0.524000000
C     3.858000000    -0.983000000    -1.743000000
C     2.938000000    -1.667000000    -2.485000000
H     2.548000000    -1.248000000    -3.409000000
C     2.550000000    -3.006000000    -2.187000000
O     1.526000000    -3.491000000    -2.918000000
C     0.189000000    -3.450000000    -2.437000000
H     0.068000000    -2.674000000    -1.666000000
C    -0.755000000    -3.019000000    -3.573000000
C    -2.094000000    -3.394000000    -3.480000000
H    -2.304000000    -4.047000000    -2.636000000
C    -0.450000000    -2.150000000    -4.581000000
H     0.597000000    -1.865000000    -4.530000000
C    -1.372000000    -1.785000000    -5.590000000
O    -0.904000000    -0.971000000    -6.666000000
C    -2.705000000    -2.235000000    -5.494000000
H    -3.453000000    -1.940000000    -6.225000000
C    -3.107000000    -3.012000000    -4.324000000
O    -4.419000000    -3.258000000    -4.167000000
C    -4.901000000    -3.820000000    -3.008000000
C    -5.499000000    -3.069000000    -2.003000000
H    -5.469000000    -1.985000000    -1.925000000
C    -5.084000000    -5.213000000    -2.990000000
H    -4.474000000    -5.827000000    -3.649000000
C    -5.815000000    -5.871000000    -1.967000000
H    -5.910000000    -6.950000000    -1.878000000
C    -6.468000000    -5.058000000    -0.999000000
H    -7.129000000    -5.572000000    -0.306000000
C    -6.283000000    -3.649000000    -1.019000000
O    -6.790000000    -2.934000000     0.034000000
C    -6.009000000    -2.294000000     0.940000000
C    -6.484000000    -1.233000000     1.732000000
H    -7.529000000    -0.936000000     1.735000000
C    -5.660000000    -0.565000000     2.637000000
O    -6.201000000     0.540000000     3.260000000
C    -5.552000000     1.542000000     3.924000000
C    -4.946000000     2.534000000     3.210000000
H    -5.155000000     2.549000000     2.143000000
C    -5.308000000     1.481000000     5.296000000
H    -5.794000000     0.732000000     5.916000000
C    -4.511000000     2.451000000     5.886000000
H    -4.363000000     2.426000000     6.962000000
C    -3.921000000     3.451000000     5.129000000
H    -3.263000000     4.157000000     5.630000000
C    -4.089000000     3.437000000     3.752000000
O    -3.337000000     4.400000000     3.044000000
C    -1.949000000     4.532000000     2.917000000
C    -1.415000000     5.507000000     2.126000000
H    -2.091000000     6.250000000     1.710000000
C    -0.074000000     5.617000000     1.876000000
O     0.363000000     6.720000000     1.128000000
C     1.605000000     6.832000000     0.537000000
C     1.846000000     6.272000000    -0.747000000
H     1.114000000     5.583000000    -1.162000000
C     2.589000000     7.583000000     1.068000000
H     2.318000000     8.100000000     1.985000000
C     3.729000000     8.013000000     0.293000000
H     4.467000000     8.676000000     0.737000000
C     3.920000000     7.479000000    -0.958000000
H     4.821000000     7.742000000    -1.505000000
C     3.009000000     6.589000000    -1.468000000
O     3.107000000     6.130000000    -2.755000000
C     2.985000000     4.794000000    -3.034000000
C     2.610000000     4.537000000    -4.283000000
H     2.293000000     5.366000000    -4.912000000
C     2.527000000     3.196000000    -4.665000000
O     1.973000000     2.874000000    -5.923000000
C     1.725000000     1.574000000    -6.414000000
C     2.827000000     0.795000000    -6.862000000
H     3.815000000     1.249000000    -6.849000000
C     2.639000000    -0.538000000    -7.238000000
H     3.459000000    -1.177000000    -7.553000000
C     1.396000000    -1.072000000    -7.151000000
H     1.289000000    -2.091000000    -7.515000000
C     0.300000000    -0.268000000    -6.780000000
C     0.452000000     1.029000000    -6.434000000
H    -0.382000000     1.592000000    -6.022000000
O    -8.434000000     3.181000000    -3.145000000
H    -7.562000000     3.277000000    -2.760000000
H    -8.518000000     3.927000000    -3.738000000
O    -1.473000000     6.942000000    -1.314000000
H    -2.380000000     6.864000000    -1.020000000
H    -1.519000000     6.830000000    -2.264000000
O    -5.891000000     3.455000000    -2.253000000
H    -5.017000000     3.836000000    -2.334000000
H    -5.734000000     2.516000000    -2.156000000
O    -7.054000000     5.368000000    -0.807000000
H    -6.678000000     4.634000000    -1.293000000
H    -6.755000000     5.238000000     0.093000000
O    -4.311000000     6.195000000    -1.077000000
H    -4.004000000     5.348000000    -1.400000000
H    -5.174000000     6.012000000    -0.706000000
O    -3.216000000     1.041000000    -8.413000000
H    -3.794000000     1.764000000    -8.167000000
H    -2.526000000     1.049000000    -7.750000000
O    -5.863000000     5.833000000     1.479000000
H    -5.694000000     6.764000000     1.624000000
H    -5.193000000     5.384000000     1.993000000
O    -5.027000000    -0.531000000    -3.886000000
H    -4.573000000     0.162000000    -4.365000000
H    -4.409000000    -1.262000000    -3.877000000
O    -2.134000000     7.424000000    -6.686000000
H    -1.640000000     6.633000000    -6.904000000
H    -2.746000000     7.143000000    -6.005000000
O    -7.520000000    -0.011000000    -5.207000000
H    -6.737000000    -0.192000000    -4.687000000
H    -7.277000000    -0.259000000    -6.099000000
O    -3.757000000     1.299000000    -5.194000000
H    -3.028000000     1.822000000    -4.862000000
H    -4.338000000     1.936000000    -5.611000000
O    -0.387000000     5.536000000    -3.471000000
H    -0.467000000     5.668000000    -4.416000000
H    -0.617000000     4.616000000    -3.338000000
O    -4.528000000     5.220000000    -4.117000000
H    -3.844000000     4.820000000    -3.579000000
H    -4.698000000     6.064000000    -3.700000000
O    -3.926000000     3.714000000    -6.868000000
H    -4.442000000     4.286000000    -6.301000000
H    -3.077000000     4.151000000    -6.941000000
O     0.461000000     8.193000000    -3.317000000
H     0.636000000     7.258000000    -3.208000000
H     1.309000000     8.570000000    -3.550000000
O    -1.432000000     4.739000000    -6.043000000
H    -1.084000000     3.924000000    -6.405000000
H    -1.856000000     4.477000000    -5.226000000
O    -0.611000000     3.158000000    -8.056000000
H    -1.060000000     3.520000000    -8.820000000
H     0.128000000     2.670000000    -8.421000000
O    -4.955000000     0.938000000    -1.528000000
H    -4.000000000     0.899000000    -1.468000000
H    -5.169000000     0.404000000    -2.293000000
O    -5.845000000     7.630000000    -3.479000000
H    -6.387000000     7.238000000    -4.164000000
H    -6.408000000     7.639000000    -2.705000000
