201
-1250.40761
C    -4.031000000    -1.347000000     2.914000000
H    -3.389000000    -0.800000000     3.599000000
C    -3.441000000    -2.369000000     2.125000000
C    -4.283000000    -3.105000000     1.322000000
H    -3.848000000    -3.860000000     0.672000000
C    -1.963000000    -2.670000000     2.295000000
O    -1.512000000    -2.606000000     3.617000000
H    -1.452000000    -1.959000000     1.629000000
O    -1.606000000    -3.989000000     1.828000000
C    -0.501000000    -4.167000000     1.064000000
C    -0.671000000    -4.294000000    -0.300000000
H    -1.672000000    -4.269000000    -0.722000000
C     0.425000000    -4.580000000    -1.100000000
O     0.177000000    -4.370000000    -2.401000000
C     1.703000000    -4.659000000    -0.511000000
C     2.981000000    -4.768000000    -1.441000000
H     3.820000000    -5.214000000    -0.904000000
C     3.408000000    -3.345000000    -1.842000000
C     4.245000000    -2.614000000    -0.964000000
H     4.705000000    -3.190000000    -0.165000000
H     2.808000000    -5.380000000    -2.329000000
C     1.860000000    -4.459000000     0.824000000
H     2.843000000    -4.531000000     1.283000000
C     0.759000000    -4.234000000     1.642000000
C     1.047000000    -4.175000000     3.136000000
H     1.990000000    -4.675000000     3.367000000
H     0.320000000    -4.805000000     3.654000000
C     0.947000000    -2.799000000     3.704000000
C     2.056000000    -2.076000000     3.952000000
H     2.926000000    -2.649000000     3.641000000
C    -0.236000000    -2.140000000     3.982000000
C    -0.212000000    -0.807000000     4.505000000
H    -1.142000000    -0.277000000     4.693000000
C     0.963000000    -0.122000000     4.657000000
O     0.964000000     1.271000000     4.798000000
C     1.076000000     2.022000000     3.586000000
C     0.059000000     3.125000000     3.582000000
C     0.487000000     4.351000000     3.155000000
H     1.541000000     4.506000000     2.940000000
C    -1.283000000     2.820000000     3.775000000
H    -1.603000000     1.815000000     4.036000000
O     2.543000000     2.444000000     3.534000000
H     0.964000000     1.375000000     2.703000000
C     2.172000000    -0.780000000     4.409000000
C     3.463000000    -0.106000000     4.358000000
H     4.169000000    -0.909000000     4.580000000
H     3.586000000     0.658000000     5.129000000
C     3.741000000     0.460000000     2.924000000
C     4.446000000    -0.261000000     1.982000000
H     4.824000000    -1.214000000     2.341000000
C     3.295000000     1.776000000     2.634000000
C     3.614000000     2.318000000     1.405000000
H     3.378000000     3.355000000     1.182000000
C     4.176000000     1.536000000     0.425000000
O     4.369000000     2.173000000    -0.718000000
C     3.517000000     1.649000000    -1.815000000
C     2.855000000     2.806000000    -2.553000000
C     2.397000000     3.971000000    -1.879000000
H     2.497000000     4.113000000    -0.806000000
C     2.612000000     2.577000000    -3.917000000
H     2.888000000     1.628000000    -4.371000000
O     4.256000000     0.692000000    -2.562000000
H     2.671000000     1.106000000    -1.367000000
C     4.718000000     0.286000000     0.736000000
C     5.526000000    -0.534000000    -0.276000000
H     6.119000000    -1.304000000     0.223000000
H     6.320000000     0.074000000    -0.714000000
C     4.598000000    -1.313000000    -1.293000000
C     4.052000000    -0.661000000    -2.327000000
C     3.159000000    -1.318000000    -3.136000000
H     2.672000000    -0.846000000    -3.985000000
C     2.847000000    -2.701000000    -2.973000000
O     1.755000000    -3.148000000    -3.737000000
C     0.494000000    -3.065000000    -2.986000000
H     0.515000000    -2.329000000    -2.169000000
C    -0.661000000    -2.607000000    -3.914000000
C    -1.994000000    -2.938000000    -3.553000000
H    -2.190000000    -3.724000000    -2.827000000
C    -0.428000000    -1.658000000    -4.923000000
H     0.516000000    -1.209000000    -5.221000000
C    -1.528000000    -1.083000000    -5.611000000
O    -1.396000000    -0.034000000    -6.461000000
C    -2.829000000    -1.376000000    -5.175000000
H    -3.655000000    -0.781000000    -5.555000000
C    -3.064000000    -2.374000000    -4.245000000
O    -4.352000000    -2.583000000    -3.807000000
C    -4.790000000    -3.604000000    -2.912000000
C    -5.591000000    -3.125000000    -1.868000000
H    -5.817000000    -2.062000000    -1.845000000
C    -4.412000000    -4.940000000    -3.033000000
H    -3.815000000    -5.231000000    -3.894000000
C    -4.677000000    -5.740000000    -1.992000000
H    -4.278000000    -6.749000000    -2.058000000
C    -5.427000000    -5.293000000    -0.873000000
H    -5.692000000    -5.931000000    -0.033000000
C    -5.925000000    -3.969000000    -0.828000000
O    -6.514000000    -3.413000000     0.325000000
C    -5.642000000    -2.816000000     1.251000000
C    -6.230000000    -1.870000000     2.069000000
H    -7.291000000    -1.647000000     1.998000000
C    -5.427000000    -1.136000000     2.956000000
O    -6.058000000    -0.314000000     3.943000000
C    -5.321000000     0.602000000     4.679000000
C    -4.761000000     1.670000000     4.094000000
H    -4.889000000     1.879000000     3.035000000
C    -5.124000000     0.392000000     6.028000000
H    -5.515000000    -0.516000000     6.479000000
C    -4.272000000     1.246000000     6.777000000
H    -3.861000000     0.959000000     7.741000000
C    -3.642000000     2.302000000     6.057000000
H    -2.841000000     2.829000000     6.570000000
C    -3.987000000     2.582000000     4.750000000
O    -3.576000000     3.650000000     4.065000000
C    -2.214000000     3.844000000     3.823000000
C    -1.821000000     5.096000000     3.390000000
H    -2.577000000     5.876000000     3.388000000
C    -0.516000000     5.319000000     3.076000000
O    -0.230000000     6.614000000     2.641000000
C     0.641000000     6.806000000     1.603000000
C     0.440000000     6.300000000     0.346000000
H    -0.386000000     5.623000000     0.141000000
C     1.765000000     7.554000000     1.856000000
H     1.843000000     8.071000000     2.809000000
C     2.731000000     7.702000000     0.886000000
H     3.637000000     8.267000000     1.084000000
C     2.464000000     7.301000000    -0.397000000
H     3.135000000     7.604000000    -1.197000000
C     1.340000000     6.571000000    -0.686000000
O     1.084000000     6.117000000    -1.921000000
C     1.715000000     4.980000000    -2.570000000
C     1.541000000     4.757000000    -3.992000000
H     0.886000000     5.435000000    -4.532000000
C     1.963000000     3.597000000    -4.658000000
O     1.848000000     3.460000000    -5.982000000
C     1.378000000     2.253000000    -6.539000000
C     2.183000000     1.735000000    -7.568000000
H     3.132000000     2.219000000    -7.784000000
C     1.754000000     0.636000000    -8.211000000
H     2.351000000     0.111000000    -8.952000000
C     0.562000000    -0.013000000    -7.782000000
H     0.228000000    -0.946000000    -8.229000000
C    -0.175000000     0.536000000    -6.742000000
C     0.195000000     1.757000000    -6.203000000
H    -0.447000000     2.314000000    -5.525000000
O    -1.683000000     8.234000000    -0.639000000
H    -2.011000000     7.391000000    -0.324000000
H    -1.183000000     8.586000000     0.097000000
O    -6.031000000     2.910000000     0.564000000
H    -5.209000000     2.815000000     0.084000000
H    -6.564000000     2.169000000     0.277000000
O    -1.372000000     8.035000000    -3.547000000
H    -0.884000000     8.737000000    -3.978000000
H    -1.073000000     8.059000000    -2.638000000
O    -7.008000000     6.005000000    -4.856000000
H    -6.140000000     6.151000000    -4.478000000
H    -7.236000000     6.840000000    -5.263000000
O    -7.814000000     3.975000000     2.585000000
H    -7.030000000     3.703000000     2.108000000
H    -7.691000000     3.626000000     3.468000000
O    -8.654000000     5.331000000     0.025000000
H    -8.058000000     4.616000000     0.249000000
H    -8.099000000     5.982000000    -0.404000000
O    -3.469000000     5.595000000     0.127000000
H    -3.316000000     5.015000000    -0.619000000
H    -4.000000000     5.074000000     0.730000000
O    -5.675000000     1.791000000    -2.427000000
H    -5.012000000     2.269000000    -1.929000000
H    -5.931000000     2.394000000    -3.125000000
O    -3.973000000     8.306000000    -4.402000000
H    -3.695000000     8.937000000    -5.066000000
H    -3.156000000     7.976000000    -4.029000000
O    -4.365000000    -0.119000000    -0.431000000
H    -4.041000000    -0.625000000     0.315000000
H    -3.588000000     0.039000000    -0.968000000
O    -1.168000000     4.778000000    -7.573000000
H    -0.632000000     5.563000000    -7.684000000
H    -1.032000000     4.522000000    -6.660000000
O    -4.698000000     8.687000000    -0.638000000
H    -4.838000000     8.348000000     0.246000000
H    -3.760000000     8.577000000    -0.792000000
O    -4.527000000     5.360000000    -2.726000000
H    -4.414000000     4.542000000    -2.243000000
H    -3.859000000     5.328000000    -3.411000000
O    -6.357000000     3.159000000    -4.568000000
H    -6.106000000     2.942000000    -5.465000000
H    -6.675000000     4.061000000    -4.619000000
O    -6.596000000     6.843000000    -1.647000000
H    -5.866000000     7.421000000    -1.422000000
H    -6.179000000     6.051000000    -1.985000000
O    -1.656000000     5.380000000    -4.632000000
H    -1.380000000     6.057000000    -4.014000000
H    -2.079000000     4.717000000    -4.086000000
O    -6.486000000    -0.362000000    -3.849000000
H    -6.236000000     0.274000000    -3.179000000
H    -5.697000000    -0.474000000    -4.379000000
O    -4.312000000     4.728000000    -7.026000000
H    -4.469000000     5.533000000    -6.534000000
H    -3.361000000     4.624000000    -7.020000000
O    -7.042000000     0.524000000    -0.149000000
H    -6.134000000     0.227000000    -0.104000000
H    -7.391000000     0.110000000    -0.938000000
