201
-1264.25086
C    -3.899000000    -0.718000000     3.127000000
H    -3.272000000    -0.179000000     3.831000000
C    -3.356000000    -1.860000000     2.489000000
C    -4.126000000    -2.486000000     1.502000000
H    -3.676000000    -3.259000000     0.884000000
C    -1.904000000    -2.269000000     2.722000000
O    -1.572000000    -1.960000000     4.097000000
H    -1.378000000    -1.661000000     1.972000000
O    -1.792000000    -3.665000000     2.464000000
C    -0.678000000    -3.965000000     1.709000000
C    -0.929000000    -4.308000000     0.347000000
H    -1.916000000    -4.433000000    -0.090000000
C     0.166000000    -4.526000000    -0.419000000
O    -0.118000000    -4.724000000    -1.775000000
C     1.473000000    -4.502000000     0.119000000
C     2.686000000    -4.768000000    -0.717000000
H     3.395000000    -5.181000000     0.003000000
C     3.197000000    -3.477000000    -1.276000000
C     4.199000000    -2.663000000    -0.658000000
H     4.693000000    -3.019000000     0.243000000
H     2.581000000    -5.611000000    -1.403000000
C     1.674000000    -4.215000000     1.484000000
H     2.667000000    -4.314000000     1.914000000
C     0.593000000    -4.021000000     2.289000000
C     0.737000000    -3.807000000     3.789000000
H     1.589000000    -4.339000000     4.217000000
H    -0.099000000    -4.293000000     4.296000000
C     0.829000000    -2.396000000     4.132000000
C     2.037000000    -1.766000000     4.145000000
H     2.951000000    -2.345000000     4.049000000
C    -0.295000000    -1.583000000     4.381000000
C    -0.189000000    -0.223000000     4.796000000
H    -1.100000000     0.370000000     4.795000000
C     1.086000000     0.363000000     4.858000000
O     1.132000000     1.721000000     4.904000000
C     1.270000000     2.416000000     3.671000000
C     0.375000000     3.598000000     3.601000000
C     0.580000000     4.566000000     2.609000000
H     1.495000000     4.448000000     2.035000000
C    -0.862000000     3.509000000     4.258000000
H    -1.090000000     2.650000000     4.883000000
O     2.655000000     2.779000000     3.431000000
H     0.933000000     1.770000000     2.847000000
C     2.203000000    -0.399000000     4.494000000
C     3.625000000     0.183000000     4.278000000
H     4.365000000    -0.610000000     4.405000000
H     3.880000000     0.948000000     5.014000000
C     3.805000000     0.777000000     2.896000000
C     4.476000000     0.003000000     1.958000000
H     4.821000000    -0.976000000     2.278000000
C     3.402000000     2.047000000     2.522000000
C     3.637000000     2.501000000     1.220000000
H     3.312000000     3.498000000     0.936000000
C     4.243000000     1.679000000     0.290000000
O     4.351000000     2.055000000    -1.031000000
C     3.374000000     1.485000000    -1.969000000
C     2.844000000     2.508000000    -2.908000000
C     2.725000000     3.805000000    -2.590000000
H     3.195000000     4.057000000    -1.643000000
C     2.304000000     2.037000000    -4.108000000
H     2.225000000     0.981000000    -4.355000000
O     3.956000000     0.426000000    -2.632000000
H     2.506000000     1.051000000    -1.451000000
C     4.679000000     0.402000000     0.607000000
C     5.464000000    -0.499000000    -0.363000000
H     6.202000000    -1.044000000     0.229000000
H     6.025000000     0.056000000    -1.119000000
C     4.480000000    -1.401000000    -1.174000000
C     3.803000000    -0.916000000    -2.262000000
C     2.904000000    -1.712000000    -2.939000000
H     2.298000000    -1.306000000    -3.746000000
C     2.551000000    -2.933000000    -2.399000000
O     1.519000000    -3.526000000    -3.036000000
C     0.195000000    -3.503000000    -2.548000000
H     0.042000000    -2.624000000    -1.905000000
C    -0.769000000    -3.364000000    -3.689000000
C    -2.151000000    -3.550000000    -3.404000000
H    -2.478000000    -3.886000000    -2.423000000
C    -0.412000000    -2.705000000    -4.816000000
H     0.632000000    -2.579000000    -5.090000000
C    -1.366000000    -2.360000000    -5.826000000
O    -0.968000000    -1.764000000    -7.049000000
C    -2.685000000    -2.688000000    -5.537000000
H    -3.481000000    -2.552000000    -6.265000000
C    -3.092000000    -3.167000000    -4.335000000
O    -4.459000000    -3.542000000    -4.168000000
C    -4.980000000    -3.999000000    -2.950000000
C    -5.383000000    -3.103000000    -1.934000000
H    -5.357000000    -2.019000000    -2.003000000
C    -4.964000000    -5.391000000    -2.758000000
H    -4.702000000    -6.139000000    -3.502000000
C    -5.541000000    -5.799000000    -1.597000000
H    -5.786000000    -6.846000000    -1.444000000
C    -5.891000000    -4.969000000    -0.530000000
H    -6.426000000    -5.425000000     0.299000000
C    -5.727000000    -3.579000000    -0.715000000
O    -6.193000000    -2.756000000     0.256000000
C    -5.400000000    -2.090000000     1.194000000
C    -6.031000000    -1.139000000     1.983000000
H    -7.104000000    -1.012000000     1.864000000
C    -5.233000000    -0.356000000     2.850000000
O    -5.748000000     0.679000000     3.583000000
C    -5.065000000     1.432000000     4.499000000
C    -4.305000000     2.531000000     4.015000000
H    -4.251000000     2.741000000     2.950000000
C    -4.997000000     1.113000000     5.886000000
H    -5.455000000     0.182000000     6.210000000
C    -4.133000000     1.749000000     6.763000000
H    -3.998000000     1.437000000     7.796000000
C    -3.433000000     2.824000000     6.305000000
H    -2.747000000     3.422000000     6.899000000
C    -3.595000000     3.257000000     4.996000000
O    -3.033000000     4.497000000     4.607000000
C    -1.866000000     4.464000000     3.943000000
C    -1.618000000     5.470000000     2.906000000
H    -2.401000000     6.213000000     2.776000000
C    -0.409000000     5.450000000     2.237000000
O    -0.297000000     6.353000000     1.239000000
C     0.822000000     6.613000000     0.468000000
C     0.915000000     6.060000000    -0.759000000
H     0.097000000     5.454000000    -1.140000000
C     1.690000000     7.521000000     0.921000000
H     1.569000000     7.972000000     1.903000000
C     2.687000000     8.001000000     0.090000000
H     3.226000000     8.925000000     0.281000000
C     2.666000000     7.560000000    -1.252000000
H     3.370000000     8.015000000    -1.944000000
C     1.874000000     6.526000000    -1.651000000
O     1.873000000     6.061000000    -3.018000000
C     2.050000000     4.721000000    -3.409000000
C     1.614000000     4.306000000    -4.635000000
H     1.106000000     5.086000000    -5.197000000
C     1.590000000     2.967000000    -4.916000000
O     0.831000000     2.572000000    -5.988000000
C     0.950000000     1.305000000    -6.600000000
C     2.143000000     0.949000000    -7.283000000
H     2.943000000     1.666000000    -7.448000000
C     2.344000000    -0.313000000    -7.834000000
H     3.218000000    -0.595000000    -8.414000000
C     1.240000000    -1.200000000    -7.862000000
H     1.463000000    -2.214000000    -8.182000000
C     0.037000000    -0.839000000    -7.125000000
C    -0.138000000     0.427000000    -6.518000000
H    -1.063000000     0.699000000    -6.016000000
O    -5.003000000     4.576000000     0.128000000
H    -4.176000000     4.686000000    -0.343000000
H    -5.247000000     3.663000000    -0.027000000
O    -0.573000000     8.201000000    -2.920000000
H    -0.285000000     8.704000000    -2.158000000
H    -0.105000000     8.595000000    -3.657000000
O    -6.113000000     4.469000000    -5.350000000
H    -6.923000000     4.920000000    -5.588000000
H    -5.699000000     5.044000000    -4.707000000
O    -4.655000000     6.959000000     1.546000000
H    -4.090000000     7.413000000     0.921000000
H    -4.829000000     6.110000000     1.139000000
O    -2.496000000     7.195000000    -0.427000000
H    -2.479000000     6.310000000    -0.791000000
H    -1.688000000     7.260000000     0.082000000
O    -6.585000000     4.730000000     2.796000000
H    -6.152000000     4.421000000     2.000000000
H    -7.106000000     5.479000000     2.509000000
O    -2.645000000     0.442000000    -3.869000000
H    -2.553000000     1.353000000    -4.149000000
H    -3.343000000     0.091000000    -4.421000000
O    -4.686000000     5.847000000    -3.230000000
H    -5.414000000     5.967000000    -2.620000000
H    -3.990000000     5.460000000    -2.699000000
O    -4.116000000     7.268000000    -5.350000000
H    -4.193000000     6.661000000    -4.614000000
H    -3.472000000     7.914000000    -5.061000000
O    -3.426000000     0.152000000    -1.342000000
H    -2.689000000     0.552000000    -0.881000000
H    -3.104000000     0.014000000    -2.233000000
O    -4.315000000     9.501000000    -1.016000000
H    -4.423000000     9.751000000    -0.099000000
H    -3.585000000     8.881000000    -1.010000000
O    -5.568000000     2.734000000    -2.686000000
H    -4.615000000     2.782000000    -2.754000000
H    -5.884000000     3.463000000    -3.220000000
O    -6.919000000     5.920000000    -1.455000000
H    -6.298000000     5.804000000    -0.736000000
H    -7.706000000     5.457000000    -1.169000000
O    -1.504000000     5.644000000    -4.511000000
H    -1.339000000     6.376000000    -3.916000000
H    -1.813000000     4.939000000    -3.942000000
O    -4.327000000     0.487000000    -6.294000000
H    -4.141000000     0.453000000    -7.233000000
H    -4.338000000     1.421000000    -6.086000000
O    -3.557000000     2.838000000    -5.228000000
H    -4.193000000     3.416000000    -5.648000000
H    -3.236000000     3.339000000    -4.478000000
O    -6.035000000     1.905000000    -0.162000000
H    -5.423000000     1.169000000    -0.150000000
H    -6.186000000     2.076000000    -1.091000000
O    -8.015000000     2.420000000    -4.665000000
H    -7.314000000     2.072000000    -4.112000000
H    -7.572000000     3.025000000    -5.260000000
O    -2.325000000     5.592000000    -7.113000000
H    -3.174000000     6.034000000    -7.095000000
H    -2.010000000     5.642000000    -6.211000000
