201
-1231.11363
C    -4.564000000    -1.632000000     2.998000000
H    -4.313000000    -1.402000000     4.031000000
C    -3.748000000    -2.376000000     2.176000000
C    -4.104000000    -2.633000000     0.868000000
H    -3.443000000    -3.185000000     0.206000000
C    -2.313000000    -2.698000000     2.632000000
O    -2.075000000    -2.626000000     4.088000000
H    -1.651000000    -1.915000000     2.232000000
O    -1.959000000    -4.078000000     2.276000000
C    -0.745000000    -4.324000000     1.636000000
C    -0.672000000    -4.522000000     0.244000000
H    -1.481000000    -4.608000000    -0.476000000
C     0.580000000    -4.541000000    -0.339000000
O     0.600000000    -4.638000000    -1.734000000
C     1.732000000    -4.354000000     0.381000000
C     3.148000000    -4.444000000    -0.295000000
H     3.864000000    -4.863000000     0.415000000
C     3.703000000    -3.113000000    -0.765000000
C     4.641000000    -2.415000000    -0.037000000
H     4.856000000    -2.757000000     0.972000000
H     3.291000000    -5.184000000    -1.086000000
C     1.660000000    -4.126000000     1.746000000
H     2.581000000    -4.076000000     2.321000000
C     0.437000000    -4.179000000     2.371000000
C     0.347000000    -4.075000000     3.903000000
H     1.246000000    -4.549000000     4.302000000
H    -0.439000000    -4.537000000     4.505000000
C     0.272000000    -2.652000000     4.293000000
C     1.414000000    -1.856000000     4.420000000
H     2.324000000    -2.391000000     4.162000000
C    -0.944000000    -1.988000000     4.510000000
C    -0.972000000    -0.582000000     4.647000000
H    -1.932000000    -0.081000000     4.740000000
C     0.171000000     0.157000000     4.760000000
O     0.011000000     1.572000000     4.663000000
C     0.374000000     2.152000000     3.419000000
C    -0.644000000     3.181000000     2.843000000
C    -0.321000000     4.097000000     1.830000000
H     0.704000000     4.084000000     1.466000000
C    -2.000000000     3.056000000     3.202000000
H    -2.310000000     2.377000000     3.992000000
O     1.739000000     2.726000000     3.486000000
H     0.427000000     1.345000000     2.673000000
C     1.433000000    -0.476000000     4.667000000
C     2.740000000     0.322000000     4.839000000
H     3.553000000    -0.174000000     5.373000000
H     2.612000000     1.084000000     5.610000000
C     3.277000000     0.823000000     3.510000000
C     4.199000000     0.073000000     2.781000000
H     4.578000000    -0.902000000     3.077000000
C     2.775000000     2.034000000     2.915000000
C     3.096000000     2.361000000     1.599000000
H     2.624000000     3.258000000     1.205000000
C     4.014000000     1.595000000     0.874000000
O     4.506000000     2.075000000    -0.353000000
C     3.867000000     1.600000000    -1.530000000
C     3.527000000     2.764000000    -2.455000000
C     3.482000000     4.075000000    -2.012000000
H     3.784000000     4.274000000    -0.987000000
C     3.036000000     2.398000000    -3.723000000
H     3.337000000     1.422000000    -4.093000000
O     4.823000000     0.698000000    -2.094000000
H     2.975000000     1.001000000    -1.297000000
C     4.598000000     0.438000000     1.455000000
C     5.709000000    -0.272000000     0.682000000
H     6.377000000    -0.862000000     1.313000000
H     6.399000000     0.455000000     0.247000000
C     4.974000000    -1.125000000    -0.426000000
C     4.640000000    -0.648000000    -1.762000000
C     3.733000000    -1.457000000    -2.486000000
H     3.265000000    -0.983000000    -3.345000000
C     3.213000000    -2.684000000    -2.013000000
O     2.295000000    -3.380000000    -2.778000000
C     0.935000000    -3.412000000    -2.381000000
H     0.774000000    -2.501000000    -1.786000000
C     0.001000000    -3.055000000    -3.493000000
C    -1.307000000    -3.554000000    -3.557000000
H    -1.633000000    -4.004000000    -2.623000000
C     0.402000000    -2.177000000    -4.524000000
H     1.431000000    -1.829000000    -4.514000000
C    -0.427000000    -1.932000000    -5.614000000
O    -0.049000000    -1.189000000    -6.671000000
C    -1.641000000    -2.580000000    -5.735000000
H    -2.186000000    -2.423000000    -6.662000000
C    -2.174000000    -3.343000000    -4.668000000
O    -3.440000000    -3.863000000    -4.767000000
C    -4.284000000    -4.163000000    -3.753000000
C    -4.706000000    -3.174000000    -2.903000000
H    -4.424000000    -2.157000000    -3.164000000
C    -4.731000000    -5.517000000    -3.511000000
H    -4.459000000    -6.381000000    -4.113000000
C    -5.356000000    -5.839000000    -2.307000000
H    -5.445000000    -6.904000000    -2.110000000
C    -5.701000000    -4.790000000    -1.445000000
H    -6.147000000    -4.984000000    -0.472000000
C    -5.418000000    -3.490000000    -1.733000000
O    -5.787000000    -2.503000000    -0.813000000
C    -5.256000000    -2.097000000     0.342000000
C    -6.016000000    -1.261000000     1.122000000
H    -6.932000000    -0.728000000     0.879000000
C    -5.664000000    -1.027000000     2.436000000
O    -6.448000000    -0.129000000     3.232000000
C    -5.870000000     0.813000000     4.056000000
C    -5.162000000     1.843000000     3.376000000
H    -5.069000000     1.803000000     2.294000000
C    -5.859000000     0.829000000     5.453000000
H    -6.341000000     0.082000000     6.079000000
C    -5.586000000     2.030000000     6.087000000
H    -5.732000000     2.066000000     7.164000000
C    -5.012000000     3.080000000     5.417000000
H    -4.555000000     3.870000000     6.008000000
C    -4.779000000     2.953000000     4.076000000
O    -4.134000000     3.982000000     3.293000000
C    -2.888000000     3.988000000     2.753000000
C    -2.588000000     4.915000000     1.755000000
H    -3.269000000     5.696000000     1.425000000
C    -1.301000000     4.988000000     1.337000000
O    -1.011000000     5.912000000     0.374000000
C     0.210000000     6.428000000     0.163000000
C     0.862000000     6.126000000    -0.976000000
H     0.391000000     5.466000000    -1.700000000
C     0.778000000     7.275000000     1.157000000
H     0.180000000     7.502000000     2.036000000
C     1.972000000     7.894000000     0.974000000
H     2.392000000     8.538000000     1.742000000
C     2.673000000     7.596000000    -0.257000000
H     3.603000000     8.143000000    -0.394000000
C     2.086000000     6.656000000    -1.187000000
O     2.706000000     6.309000000    -2.352000000
C     2.960000000     5.042000000    -2.800000000
C     2.521000000     4.747000000    -4.099000000
H     1.966000000     5.447000000    -4.718000000
C     2.556000000     3.412000000    -4.566000000
O     2.018000000     3.167000000    -5.800000000
C     1.995000000     1.880000000    -6.367000000
C     3.087000000     1.468000000    -7.159000000
H     3.881000000     2.184000000    -7.355000000
C     3.164000000     0.179000000    -7.653000000
H     4.140000000    -0.140000000    -8.009000000
C     2.098000000    -0.697000000    -7.358000000
H     2.237000000    -1.668000000    -7.828000000
C     0.942000000    -0.292000000    -6.722000000
C     0.915000000     1.009000000    -6.218000000
H     0.016000000     1.350000000    -5.711000000
O    -5.413000000     8.912000000    -2.121000000
H    -5.755000000     9.182000000    -2.973000000
H    -5.419000000     7.955000000    -2.152000000
O    -2.676000000     6.911000000    -6.393000000
H    -2.817000000     7.619000000    -5.764000000
H    -3.497000000     6.420000000    -6.390000000
O    -6.146000000     2.114000000    -5.470000000
H    -5.343000000     2.160000000    -4.951000000
H    -6.626000000     2.910000000    -5.242000000
O    -0.375000000     5.035000000    -6.677000000
H    -1.160000000     5.531000000    -6.443000000
H     0.106000000     5.613000000    -7.270000000
O    -5.874000000     3.996000000     0.605000000
H    -6.696000000     3.765000000     0.171000000
H    -5.231000000     4.030000000    -0.103000000
O    -7.869000000     4.686000000    -1.390000000
H    -8.276000000     5.442000000    -0.966000000
H    -8.541000000     4.005000000    -1.359000000
O    -3.733000000     0.216000000    -3.137000000
H    -3.705000000     0.105000000    -4.087000000
H    -2.858000000    -0.036000000    -2.840000000
O    -2.479000000     6.661000000    -2.769000000
H    -3.290000000     6.812000000    -3.254000000
H    -2.308000000     5.725000000    -2.873000000
O    -5.321000000     5.687000000    -2.858000000
H    -5.979000000     5.554000000    -2.176000000
H    -4.615000000     5.081000000    -2.631000000
O    -4.903000000     5.551000000    -5.741000000
H    -4.743000000     5.466000000    -4.801000000
H    -5.746000000     5.120000000    -5.881000000
O    -0.220000000     7.775000000    -3.976000000
H     0.437000000     7.079000000    -3.968000000
H    -0.901000000     7.468000000    -3.377000000
O    -5.835000000     1.742000000    -1.584000000
H    -5.375000000     2.534000000    -1.305000000
H    -5.143000000     1.163000000    -1.904000000
O    -7.322000000     4.340000000    -4.683000000
H    -7.112000000     4.424000000    -3.753000000
H    -8.228000000     4.031000000    -4.698000000
O    -3.139000000     7.881000000    -0.023000000
H    -2.918000000     8.537000000    -0.684000000
H    -2.959000000     7.043000000    -0.449000000
O    -6.811000000     5.378000000     2.764000000
H    -6.616000000     4.755000000     2.064000000
H    -6.188000000     6.092000000     2.630000000
O    -2.494000000     3.274000000    -5.202000000
H    -1.625000000     3.674000000    -5.247000000
H    -2.808000000     3.482000000    -4.322000000
O    -3.059000000     0.547000000    -5.817000000
H    -2.732000000     1.436000000    -5.675000000
H    -3.151000000     0.475000000    -6.767000000
O    -8.625000000     0.661000000    -2.033000000
H    -8.756000000    -0.136000000    -1.519000000
H    -7.743000000     0.953000000    -1.803000000
O    -3.719000000     3.808000000    -7.682000000
H    -2.966000000     3.475000000    -7.194000000
H    -4.044000000     4.536000000    -7.152000000
