201
-1245.39858
C    -2.939000000    -1.358000000     3.762000000
H    -2.511000000    -0.570000000     4.377000000
C    -2.105000000    -2.428000000     3.362000000
C    -2.584000000    -3.304000000     2.393000000
H    -1.950000000    -4.058000000     1.934000000
C    -0.637000000    -2.283000000     3.630000000
O    -0.246000000    -1.532000000     4.811000000
H    -0.310000000    -1.685000000     2.766000000
O     0.153000000    -3.580000000     3.723000000
C     1.264000000    -3.608000000     2.809000000
C     1.142000000    -4.075000000     1.465000000
H     0.161000000    -4.438000000     1.171000000
C     2.144000000    -3.892000000     0.546000000
O     2.080000000    -4.384000000    -0.735000000
C     3.285000000    -3.270000000     0.955000000
C     4.402000000    -3.068000000    -0.038000000
H     5.368000000    -2.939000000     0.454000000
C     4.219000000    -1.864000000    -0.933000000
C     4.865000000    -0.658000000    -0.573000000
H     5.422000000    -0.621000000     0.359000000
H     4.511000000    -3.983000000    -0.624000000
C     3.432000000    -2.813000000     2.236000000
H     4.331000000    -2.274000000     2.523000000
C     2.419000000    -3.012000000     3.177000000
C     2.491000000    -2.301000000     4.499000000
H     3.504000000    -2.242000000     4.902000000
H     1.994000000    -2.823000000     5.319000000
C     2.032000000    -0.877000000     4.447000000
C     2.925000000     0.221000000     4.168000000
H     3.971000000     0.031000000     3.938000000
C     0.683000000    -0.560000000     4.646000000
C     0.304000000     0.735000000     4.595000000
H    -0.742000000     0.988000000     4.749000000
C     1.142000000     1.746000000     4.194000000
O     0.683000000     3.015000000     3.890000000
C     0.438000000     3.505000000     2.571000000
C    -0.994000000     4.124000000     2.554000000
C    -1.392000000     4.776000000     1.385000000
H    -0.668000000     4.862000000     0.580000000
C    -1.934000000     3.917000000     3.586000000
H    -1.710000000     3.322000000     4.468000000
O     1.441000000     4.380000000     2.206000000
H     0.447000000     2.641000000     1.890000000
C     2.502000000     1.552000000     4.021000000
C     3.410000000     2.659000000     3.517000000
H     4.435000000     2.343000000     3.722000000
H     3.229000000     3.534000000     4.145000000
C     3.413000000     2.970000000     2.027000000
C     4.445000000     2.402000000     1.269000000
H     5.191000000     1.762000000     1.734000000
C     2.432000000     3.732000000     1.486000000
C     2.411000000     3.897000000     0.088000000
H     1.576000000     4.401000000    -0.392000000
C     3.421000000     3.361000000    -0.685000000
O     3.256000000     3.482000000    -2.078000000
C     2.721000000     2.339000000    -2.703000000
C     1.606000000     2.575000000    -3.655000000
C     0.444000000     3.336000000    -3.290000000
H     0.541000000     3.930000000    -2.385000000
C     1.592000000     1.876000000    -4.864000000
H     2.328000000     1.110000000    -5.095000000
O     3.784000000     1.560000000    -3.243000000
H     2.233000000     1.757000000    -1.907000000
C     4.446000000     2.610000000    -0.117000000
C     5.431000000     1.758000000    -0.928000000
H     6.330000000     1.454000000    -0.386000000
H     5.741000000     2.284000000    -1.834000000
C     4.758000000     0.479000000    -1.402000000
C     4.010000000     0.439000000    -2.556000000
C     3.466000000    -0.787000000    -2.919000000
H     2.812000000    -0.869000000    -3.784000000
C     3.507000000    -1.909000000    -2.114000000
O     2.844000000    -2.990000000    -2.502000000
C     1.676000000    -3.472000000    -1.777000000
H     1.109000000    -2.662000000    -1.295000000
C     0.688000000    -4.071000000    -2.720000000
C    -0.164000000    -5.047000000    -2.317000000
H    -0.076000000    -5.543000000    -1.354000000
C     0.516000000    -3.481000000    -3.982000000
H     1.186000000    -2.703000000    -4.338000000
C    -0.612000000    -3.880000000    -4.776000000
O    -0.944000000    -3.194000000    -5.925000000
C    -1.539000000    -4.761000000    -4.270000000
H    -2.502000000    -4.815000000    -4.771000000
C    -1.301000000    -5.431000000    -3.084000000
O    -2.250000000    -6.321000000    -2.573000000
C    -2.784000000    -6.258000000    -1.346000000
C    -3.342000000    -5.090000000    -0.761000000
H    -3.116000000    -4.193000000    -1.331000000
C    -2.921000000    -7.430000000    -0.681000000
H    -2.739000000    -8.410000000    -1.114000000
C    -3.487000000    -7.446000000     0.582000000
H    -3.601000000    -8.397000000     1.096000000
C    -3.860000000    -6.257000000     1.267000000
H    -4.160000000    -6.248000000     2.312000000
C    -3.921000000    -5.105000000     0.479000000
O    -4.433000000    -3.937000000     0.942000000
C    -3.913000000    -3.236000000     2.016000000
C    -4.779000000    -2.356000000     2.640000000
H    -5.837000000    -2.352000000     2.390000000
C    -4.292000000    -1.291000000     3.352000000
O    -5.170000000    -0.290000000     3.719000000
C    -4.801000000     0.690000000     4.552000000
C    -4.619000000     1.959000000     4.100000000
H    -4.768000000     2.309000000     3.082000000
C    -4.710000000     0.436000000     5.886000000
H    -4.799000000    -0.560000000     6.312000000
C    -4.516000000     1.499000000     6.792000000
H    -4.554000000     1.374000000     7.871000000
C    -4.292000000     2.795000000     6.299000000
H    -4.094000000     3.586000000     7.018000000
C    -4.353000000     2.973000000     4.960000000
O    -4.140000000     4.201000000     4.528000000
C    -3.214000000     4.421000000     3.493000000
C    -3.626000000     5.082000000     2.300000000
H    -4.624000000     5.511000000     2.263000000
C    -2.719000000     5.249000000     1.265000000
O    -3.218000000     5.947000000     0.204000000
C    -2.561000000     6.052000000    -0.960000000
C    -2.318000000     4.928000000    -1.686000000
H    -2.643000000     3.936000000    -1.383000000
C    -2.422000000     7.365000000    -1.499000000
H    -2.732000000     8.264000000    -0.972000000
C    -1.868000000     7.499000000    -2.774000000
H    -1.612000000     8.478000000    -3.170000000
C    -1.585000000     6.399000000    -3.520000000
H    -1.217000000     6.507000000    -4.537000000
C    -1.842000000     5.111000000    -3.009000000
O    -1.830000000     4.084000000    -3.818000000
C    -0.681000000     3.430000000    -4.119000000
C    -0.616000000     2.677000000    -5.304000000
H    -1.470000000     2.718000000    -5.975000000
C     0.478000000     1.992000000    -5.702000000
O     0.550000000     1.324000000    -6.946000000
C     0.608000000    -0.077000000    -7.060000000
C     1.653000000    -0.559000000    -7.834000000
H     2.326000000     0.149000000    -8.311000000
C     1.754000000    -1.936000000    -7.965000000
H     2.551000000    -2.326000000    -8.594000000
C     0.882000000    -2.871000000    -7.278000000
H     0.922000000    -3.955000000    -7.346000000
C    -0.138000000    -2.303000000    -6.548000000
C    -0.271000000    -0.917000000    -6.398000000
H    -1.111000000    -0.512000000    -5.838000000
O    -9.366000000     1.557000000     0.562000000
H    -8.954000000     2.151000000     1.189000000
H    -8.724000000     0.857000000     0.439000000
O    -3.682000000    -1.209000000    -2.657000000
H    -2.770000000    -1.151000000    -2.373000000
H    -3.992000000    -0.303000000    -2.655000000
O    -9.036000000     4.585000000    -0.343000000
H    -8.572000000     4.415000000    -1.163000000
H    -9.824000000     5.060000000    -0.608000000
O    -5.547000000     5.583000000    -1.838000000
H    -5.834000000     4.822000000    -1.333000000
H    -5.074000000     6.125000000    -1.206000000
O    -4.663000000     4.843000000    -4.263000000
H    -4.724000000     5.288000000    -3.417000000
H    -4.773000000     5.541000000    -4.908000000
O    -1.944000000    -1.947000000    -0.282000000
H    -1.928000000    -2.011000000     0.673000000
H    -1.832000000    -1.014000000    -0.462000000
O    -8.681000000    -1.536000000     2.186000000
H    -9.351000000    -0.964000000     2.560000000
H    -8.039000000    -0.937000000     1.806000000
O    -7.174000000    -3.795000000    -0.518000000
H    -6.316000000    -3.406000000    -0.347000000
H    -6.977000000    -4.639000000    -0.924000000
O    -8.203000000     4.543000000    -3.106000000
H    -8.907000000     4.630000000    -3.748000000
H    -7.480000000     5.052000000    -3.473000000
O    -6.759000000     0.058000000     1.339000000
H    -6.167000000     0.460000000     0.703000000
H    -6.241000000    -0.008000000     2.141000000
O    -7.283000000     0.929000000    -5.505000000
H    -6.732000000     1.307000000    -6.189000000
H    -6.795000000     1.077000000    -4.695000000
O    -4.477000000    -3.850000000    -3.616000000
H    -4.314000000    -3.424000000    -4.458000000
H    -4.307000000    -3.168000000    -2.966000000
O    -4.350000000     2.193000000    -4.472000000
H    -4.357000000     1.844000000    -3.581000000
H    -4.452000000     3.138000000    -4.359000000
O    -8.217000000     3.837000000     2.230000000
H    -8.590000000     4.199000000     1.426000000
H    -7.361000000     4.259000000     2.308000000
O    -9.412000000    -0.368000000    -2.845000000
H    -9.888000000     0.446000000    -2.684000000
H    -8.489000000    -0.120000000    -2.793000000
O    -3.951000000     0.877000000    -6.860000000
H    -4.388000000     1.591000000    -7.324000000
H    -3.803000000     1.220000000    -5.978000000
O    -6.965000000     1.000000000    -2.405000000
H    -6.186000000     0.895000000    -1.860000000
H    -7.104000000     1.946000000    -2.446000000
O    -6.723000000     6.286000000     1.056000000
H    -6.471000000     5.417000000     0.744000000
H    -7.283000000     6.636000000     0.363000000
O    -6.319000000     3.537000000    -0.196000000
H    -5.781000000     2.751000000    -0.288000000
H    -7.208000000     3.244000000    -0.397000000
