201
-1251.36778
C    -2.285000000    -2.307000000     3.769000000
H    -1.547000000    -1.624000000     4.180000000
C    -1.884000000    -3.205000000     2.778000000
C    -2.834000000    -3.851000000     2.024000000
H    -2.529000000    -4.466000000     1.181000000
C    -0.373000000    -3.246000000     2.359000000
O     0.376000000    -3.047000000     3.579000000
H    -0.105000000    -2.483000000     1.614000000
O    -0.041000000    -4.545000000     1.808000000
C     0.786000000    -4.535000000     0.656000000
C     0.205000000    -4.598000000    -0.590000000
H    -0.881000000    -4.656000000    -0.594000000
C     0.952000000    -4.349000000    -1.704000000
O     0.410000000    -4.284000000    -2.977000000
C     2.331000000    -4.170000000    -1.665000000
C     3.064000000    -3.785000000    -2.965000000
H     4.072000000    -4.187000000    -2.846000000
C     3.014000000    -2.276000000    -3.168000000
C     4.005000000    -1.403000000    -2.651000000
H     4.706000000    -1.788000000    -1.915000000
H     2.640000000    -4.322000000    -3.816000000
C     2.963000000    -4.112000000    -0.380000000
H     4.023000000    -3.893000000    -0.276000000
C     2.158000000    -4.249000000     0.743000000
C     2.791000000    -4.132000000     2.089000000
H     3.832000000    -4.441000000     1.972000000
H     2.338000000    -4.834000000     2.792000000
C     2.608000000    -2.694000000     2.675000000
C     3.708000000    -1.814000000     2.646000000
H     4.551000000    -2.079000000     2.012000000
C     1.487000000    -2.209000000     3.363000000
C     1.446000000    -0.887000000     3.926000000
H     0.568000000    -0.587000000     4.493000000
C     2.458000000    -0.041000000     3.680000000
O     2.268000000     1.201000000     4.044000000
C     1.860000000     2.086000000     3.022000000
C     0.754000000     2.968000000     3.499000000
C     0.605000000     4.253000000     3.002000000
H     1.372000000     4.590000000     2.308000000
C    -0.201000000     2.476000000     4.444000000
H    -0.122000000     1.483000000     4.878000000
O     2.969000000     2.865000000     2.638000000
H     1.378000000     1.562000000     2.183000000
C     3.598000000    -0.497000000     3.058000000
C     4.777000000     0.446000000     2.781000000
H     5.679000000    -0.167000000     2.739000000
H     4.949000000     1.157000000     3.591000000
C     4.471000000     1.204000000     1.515000000
C     5.008000000     0.794000000     0.305000000
H     5.518000000    -0.166000000     0.276000000
C     3.721000000     2.397000000     1.556000000
C     3.489000000     3.116000000     0.378000000
H     2.901000000     4.030000000     0.386000000
C     3.855000000     2.635000000    -0.827000000
O     3.501000000     3.243000000    -1.972000000
C     2.283000000     2.667000000    -2.507000000
C     1.279000000     3.747000000    -2.967000000
C     1.242000000     5.004000000    -2.342000000
H     2.047000000     5.171000000    -1.631000000
C     0.228000000     3.427000000    -3.841000000
H     0.256000000     2.444000000    -4.304000000
O     2.574000000     1.923000000    -3.704000000
H     1.752000000     2.011000000    -1.802000000
C     4.606000000     1.419000000    -0.920000000
C     5.034000000     0.824000000    -2.314000000
H     5.935000000     0.233000000    -2.134000000
H     5.152000000     1.694000000    -2.964000000
C     3.909000000     0.013000000    -2.898000000
C     2.800000000     0.540000000    -3.565000000
C     1.839000000    -0.333000000    -4.083000000
H     1.018000000    -0.032000000    -4.730000000
C     1.871000000    -1.695000000    -3.824000000
O     0.798000000    -2.404000000    -4.282000000
C    -0.096000000    -2.977000000    -3.364000000
H    -0.052000000    -2.386000000    -2.438000000
C    -1.566000000    -3.034000000    -3.900000000
C    -2.480000000    -3.931000000    -3.425000000
H    -2.076000000    -4.787000000    -2.891000000
C    -2.064000000    -1.801000000    -4.400000000
H    -1.419000000    -0.975000000    -4.687000000
C    -3.471000000    -1.598000000    -4.547000000
O    -3.943000000    -0.388000000    -4.974000000
C    -4.329000000    -2.543000000    -4.015000000
H    -5.401000000    -2.406000000    -4.134000000
C    -3.828000000    -3.694000000    -3.485000000
O    -4.739000000    -4.675000000    -3.195000000
C    -4.684000000    -5.263000000    -1.997000000
C    -4.863000000    -4.473000000    -0.851000000
H    -5.032000000    -3.407000000    -0.981000000
C    -4.515000000    -6.635000000    -1.842000000
H    -4.490000000    -7.303000000    -2.699000000
C    -4.337000000    -7.222000000    -0.613000000
H    -4.162000000    -8.294000000    -0.637000000
C    -4.625000000    -6.454000000     0.565000000
H    -4.606000000    -6.797000000     1.596000000
C    -4.895000000    -5.084000000     0.413000000
O    -5.052000000    -4.324000000     1.537000000
C    -4.167000000    -3.682000000     2.336000000
C    -4.579000000    -2.858000000     3.356000000
H    -5.652000000    -2.757000000     3.496000000
C    -3.638000000    -2.137000000     4.060000000
O    -4.082000000    -1.329000000     5.029000000
C    -3.200000000    -0.560000000     5.824000000
C    -3.147000000     0.766000000     5.493000000
H    -3.730000000     1.108000000     4.642000000
C    -2.373000000    -1.095000000     6.756000000
H    -2.468000000    -2.176000000     6.819000000
C    -1.631000000    -0.251000000     7.576000000
H    -0.952000000    -0.656000000     8.322000000
C    -1.629000000     1.110000000     7.260000000
H    -0.901000000     1.639000000     7.869000000
C    -2.287000000     1.626000000     6.166000000
O    -2.140000000     2.889000000     5.722000000
C    -1.222000000     3.300000000     4.826000000
C    -1.377000000     4.561000000     4.278000000
H    -2.246000000     5.147000000     4.567000000
C    -0.495000000     5.042000000     3.365000000
O    -0.741000000     6.305000000     2.795000000
C     0.190000000     6.846000000     1.852000000
C    -0.046000000     6.538000000     0.517000000
H    -0.867000000     5.832000000     0.423000000
C     1.146000000     7.843000000     2.153000000
H     1.338000000     8.243000000     3.146000000
C     1.939000000     8.375000000     1.168000000
H     2.704000000     9.105000000     1.420000000
C     1.605000000     8.135000000    -0.187000000
H     2.106000000     8.589000000    -1.038000000
C     0.606000000     7.234000000    -0.513000000
O     0.160000000     7.064000000    -1.793000000
C     0.211000000     5.870000000    -2.508000000
C    -0.893000000     5.489000000    -3.264000000
H    -1.794000000     6.096000000    -3.256000000
C    -0.831000000     4.313000000    -3.972000000
O    -1.862000000     4.062000000    -4.860000000
C    -2.150000000     2.823000000    -5.421000000
C    -1.501000000     2.496000000    -6.617000000
H    -0.874000000     3.254000000    -7.078000000
C    -1.705000000     1.294000000    -7.247000000
H    -1.133000000     1.136000000    -8.158000000
C    -2.592000000     0.401000000    -6.712000000
H    -2.735000000    -0.521000000    -7.270000000
C    -3.214000000     0.620000000    -5.500000000
C    -3.028000000     1.909000000    -4.849000000
H    -3.415000000     2.168000000    -3.867000000
O    -5.491000000     4.095000000     3.285000000
H    -6.359000000     3.811000000     2.998000000
H    -4.929000000     3.335000000     3.135000000
O    -7.697000000    -2.357000000    -2.052000000
H    -7.155000000    -1.976000000    -1.361000000
H    -7.829000000    -1.642000000    -2.674000000
O    -6.701000000     0.921000000     2.307000000
H    -6.711000000     0.204000000     1.673000000
H    -5.868000000     1.366000000     2.152000000
O    -3.113000000     8.049000000     2.653000000
H    -2.762000000     8.023000000     3.543000000
H    -2.927000000     7.180000000     2.297000000
O    -3.478000000    -1.288000000    -0.820000000
H    -3.916000000    -1.200000000    -1.667000000
H    -3.015000000    -0.458000000    -0.703000000
O    -6.364000000    -0.693000000    -0.148000000
H    -6.661000000     0.194000000    -0.351000000
H    -5.434000000    -0.595000000     0.055000000
O    -8.181000000     3.393000000     2.879000000
H    -8.841000000     3.556000000     2.205000000
H    -8.081000000     2.441000000     2.889000000
O    -7.677000000     0.926000000     4.875000000
H    -8.581000000     1.239000000     4.863000000
H    -7.310000000     1.223000000     4.042000000
O   -10.234000000     0.520000000     0.218000000
H   -10.815000000     0.083000000    -0.405000000
H    -9.586000000     0.965000000    -0.329000000
O    -5.331000000     6.108000000    -4.056000000
H    -4.724000000     6.596000000    -4.612000000
H    -4.813000000     5.866000000    -3.289000000
O    -6.861000000     1.223000000    -4.270000000
H    -6.359000000     1.577000000    -3.536000000
H    -7.702000000     1.676000000    -4.226000000
O    -7.569000000     4.610000000    -2.666000000
H    -6.798000000     5.178000000    -2.692000000
H    -7.869000000     4.655000000    -1.759000000
O    -4.285000000     5.498000000    -1.505000000
H    -4.188000000     4.697000000    -0.991000000
H    -4.009000000     6.197000000    -0.912000000
O    -3.651000000     8.019000000    -0.592000000
H    -4.275000000     8.163000000     0.120000000
H    -3.675000000     8.830000000    -1.099000000
O    -5.492000000     2.434000000    -2.068000000
H    -5.055000000     2.791000000    -1.295000000
H    -5.931000000     3.187000000    -2.464000000
O    -7.005000000     4.176000000     0.101000000
H    -6.123000000     3.936000000     0.387000000
H    -7.493000000     4.304000000     0.914000000
O    -4.768000000     5.185000000     6.247000000
H    -5.247000000     4.388000000     6.475000000
H    -4.877000000     5.267000000     5.300000000
O    -3.574000000     5.323000000     1.967000000
H    -4.160000000     4.969000000     2.637000000
H    -3.755000000     4.796000000     1.189000000
O    -8.286000000     1.576000000    -1.286000000
H    -7.880000000     2.318000000    -0.838000000
H    -8.445000000     1.891000000    -2.176000000
