201
-1247.18862
C    -1.525000000    -1.881000000     4.666000000
H    -0.813000000    -1.161000000     5.062000000
C    -1.175000000    -2.849000000     3.697000000
C    -2.119000000    -3.816000000     3.222000000
H    -1.884000000    -4.601000000     2.507000000
C     0.232000000    -2.811000000     3.078000000
O     1.269000000    -2.372000000     4.142000000
H     0.374000000    -2.098000000     2.252000000
O     0.591000000    -4.080000000     2.450000000
C     1.288000000    -4.194000000     1.300000000
C     0.536000000    -4.395000000     0.157000000
H    -0.522000000    -4.642000000     0.150000000
C     1.142000000    -4.274000000    -1.052000000
O     0.236000000    -4.445000000    -2.115000000
C     2.469000000    -3.999000000    -1.183000000
C     2.968000000    -3.897000000    -2.589000000
H     3.994000000    -4.259000000    -2.499000000
C     2.805000000    -2.481000000    -3.201000000
C     3.782000000    -1.494000000    -2.909000000
H     4.702000000    -1.815000000    -2.426000000
H     2.464000000    -4.486000000    -3.358000000
C     3.246000000    -3.867000000    -0.007000000
H     4.313000000    -3.658000000    -0.043000000
C     2.618000000    -3.861000000     1.270000000
C     3.475000000    -3.539000000     2.535000000
H     4.533000000    -3.759000000     2.376000000
H     2.968000000    -4.133000000     3.298000000
C     3.417000000    -2.019000000     2.979000000
C     4.321000000    -1.067000000     2.524000000
H     5.103000000    -1.383000000     1.840000000
C     2.334000000    -1.541000000     3.790000000
C     2.261000000    -0.153000000     4.123000000
H     1.412000000     0.140000000     4.735000000
C     3.156000000     0.809000000     3.612000000
O     3.025000000     2.104000000     3.831000000
C     2.420000000     2.789000000     2.715000000
C     1.274000000     3.694000000     3.206000000
C     0.787000000     4.737000000     2.341000000
H     1.288000000     4.929000000     1.396000000
C     0.534000000     3.349000000     4.386000000
H     0.896000000     2.467000000     4.908000000
O     3.392000000     3.487000000     1.946000000
H     1.958000000     2.025000000     2.073000000
C     4.207000000     0.341000000     2.828000000
C     5.145000000     1.257000000     2.089000000
H     6.108000000     0.773000000     1.911000000
H     5.347000000     2.169000000     2.655000000
C     4.633000000     1.718000000     0.725000000
C     4.841000000     1.111000000    -0.505000000
H     5.577000000     0.313000000    -0.549000000
C     3.687000000     2.792000000     0.823000000
C     3.041000000     3.208000000    -0.304000000
H     2.346000000     4.043000000    -0.304000000
C     3.342000000     2.592000000    -1.548000000
O     2.674000000     3.079000000    -2.667000000
C     1.583000000     2.235000000    -3.200000000
C     0.323000000     3.033000000    -3.546000000
C     0.043000000     4.205000000    -2.893000000
H     0.766000000     4.722000000    -2.268000000
C    -0.691000000     2.413000000    -4.207000000
H    -0.367000000     1.467000000    -4.635000000
O     2.073000000     1.504000000    -4.385000000
H     1.418000000     1.564000000    -2.344000000
C     4.261000000     1.570000000    -1.658000000
C     4.518000000     0.947000000    -3.010000000
H     5.515000000     0.520000000    -2.883000000
H     4.563000000     1.667000000    -3.830000000
C     3.523000000    -0.175000000    -3.293000000
C     2.417000000     0.183000000    -4.114000000
C     1.563000000    -0.877000000    -4.513000000
H     0.748000000    -0.737000000    -5.219000000
C     1.674000000    -2.167000000    -3.994000000
O     0.657000000    -3.139000000    -4.154000000
C    -0.186000000    -3.337000000    -3.024000000
H    -0.187000000    -2.443000000    -2.383000000
C    -1.655000000    -3.445000000    -3.382000000
C    -2.560000000    -3.915000000    -2.444000000
H    -2.241000000    -4.326000000    -1.490000000
C    -2.149000000    -2.927000000    -4.533000000
H    -1.440000000    -2.632000000    -5.302000000
C    -3.525000000    -2.813000000    -4.781000000
O    -3.899000000    -2.268000000    -5.935000000
C    -4.451000000    -3.127000000    -3.779000000
H    -5.526000000    -3.090000000    -3.936000000
C    -3.932000000    -3.727000000    -2.607000000
O    -4.780000000    -4.008000000    -1.554000000
C    -4.510000000    -4.876000000    -0.417000000
C    -4.337000000    -4.272000000     0.793000000
H    -4.301000000    -3.207000000     1.004000000
C    -4.721000000    -6.187000000    -0.588000000
H    -4.751000000    -6.653000000    -1.569000000
C    -4.743000000    -7.107000000     0.473000000
H    -4.904000000    -8.134000000     0.154000000
C    -4.546000000    -6.520000000     1.760000000
H    -4.556000000    -7.164000000     2.636000000
C    -4.348000000    -5.131000000     1.924000000
O    -4.357000000    -4.621000000     3.229000000
C    -3.428000000    -3.659000000     3.712000000
C    -3.796000000    -2.694000000     4.714000000
H    -4.767000000    -2.685000000     5.202000000
C    -2.814000000    -1.848000000     5.189000000
O    -3.157000000    -0.811000000     6.011000000
C    -2.317000000     0.176000000     6.480000000
C    -2.270000000     1.455000000     5.938000000
H    -3.036000000     1.747000000     5.224000000
C    -1.483000000    -0.086000000     7.620000000
H    -1.382000000    -1.075000000     8.059000000
C    -0.521000000     0.871000000     8.015000000
H     0.119000000     0.547000000     8.832000000
C    -0.370000000     2.091000000     7.358000000
H     0.378000000     2.840000000     7.607000000
C    -1.323000000     2.435000000     6.332000000
O    -1.359000000     3.709000000     5.817000000
C    -0.565000000     4.052000000     4.727000000
C    -0.880000000     5.163000000     3.957000000
H    -1.771000000     5.751000000     4.163000000
C    -0.300000000     5.486000000     2.783000000
O    -0.816000000     6.556000000     2.124000000
C    -0.430000000     6.935000000     0.885000000
C    -0.850000000     6.128000000    -0.146000000
H    -1.245000000     5.126000000     0.001000000
C     0.142000000     8.161000000     0.713000000
H     0.378000000     8.718000000     1.616000000
C     0.376000000     8.512000000    -0.651000000
H     0.820000000     9.492000000    -0.807000000
C    -0.022000000     7.765000000    -1.735000000
H     0.036000000     8.115000000    -2.763000000
C    -0.721000000     6.606000000    -1.459000000
O    -1.448000000     6.025000000    -2.476000000
C    -1.202000000     4.803000000    -3.052000000
C    -2.234000000     4.199000000    -3.743000000
H    -3.193000000     4.694000000    -3.873000000
C    -1.975000000     2.941000000    -4.328000000
O    -3.007000000     2.317000000    -4.974000000
C    -2.907000000     1.223000000    -5.842000000
C    -2.494000000     1.445000000    -7.127000000
H    -2.142000000     2.376000000    -7.565000000
C    -2.436000000     0.289000000    -7.933000000
H    -2.056000000     0.359000000    -8.949000000
C    -2.857000000    -0.990000000    -7.600000000
H    -2.800000000    -1.858000000    -8.253000000
C    -3.335000000    -1.094000000    -6.323000000
C    -3.352000000    -0.023000000    -5.431000000
H    -3.717000000    -0.194000000    -4.422000000
O    -4.738000000     4.633000000     4.043000000
H    -5.420000000     3.981000000     4.204000000
H    -4.113000000     4.188000000     3.471000000
O    -3.264000000     8.331000000    -1.461000000
H    -4.206000000     8.467000000    -1.366000000
H    -3.097000000     7.495000000    -1.026000000
O    -6.598000000     7.549000000    -2.452000000
H    -5.963000000     6.846000000    -2.590000000
H    -6.213000000     8.087000000    -1.759000000
O    -3.703000000    -0.652000000     0.566000000
H    -4.210000000    -0.162000000    -0.082000000
H    -2.826000000    -0.713000000     0.187000000
O    -6.599000000     2.309000000    -3.389000000
H    -6.245000000     3.198000000    -3.361000000
H    -6.265000000     1.944000000    -4.208000000
O    -7.467000000    -0.998000000    -2.159000000
H    -7.888000000    -0.871000000    -3.009000000
H    -7.120000000    -0.136000000    -1.932000000
O    -5.905000000     0.241000000     5.483000000
H    -5.340000000     0.449000000     4.739000000
H    -5.308000000     0.189000000     6.229000000
O    -5.630000000     4.884000000    -2.785000000
H    -6.540000000     4.948000000    -2.497000000
H    -5.125000000     4.831000000    -1.974000000
O    -3.795000000     6.015000000    -0.267000000
H    -3.745000000     5.061000000    -0.329000000
H    -4.382000000     6.177000000     0.472000000
O    -1.110000000     8.821000000     3.913000000
H    -1.635000000     8.522000000     4.655000000
H    -1.165000000     8.108000000     3.277000000
O    -5.225000000     7.025000000     2.878000000
H    -4.882000000     6.309000000     3.413000000
H    -5.520000000     7.677000000     3.514000000
O    -4.974000000     1.291000000    -1.216000000
H    -5.570000000     1.534000000    -1.924000000
H    -4.555000000     2.114000000    -0.962000000
O    -4.458000000     0.793000000     2.951000000
H    -4.146000000     0.193000000     2.273000000
H    -4.119000000     1.648000000     2.687000000
O    -6.638000000     3.673000000     0.726000000
H    -6.662000000     3.471000000     1.662000000
H    -5.791000000     3.339000000     0.431000000
O    -8.426000000     1.644000000     0.687000000
H    -8.312000000     2.448000000     0.179000000
H    -7.750000000     1.690000000     1.363000000
O    -7.190000000     3.485000000     3.397000000
H    -7.472000000     4.376000000     3.603000000
H    -7.748000000     2.926000000     3.937000000
O    -4.009000000     4.363000000     7.007000000
H    -4.853000000     4.808000000     6.934000000
H    -3.722000000     4.244000000     6.102000000
O    -7.062000000     6.324000000     0.707000000
H    -6.634000000     6.572000000     1.527000000
H    -6.858000000     5.394000000     0.603000000
O    -6.346000000    -1.810000000     1.757000000
H    -5.781000000    -1.264000000     1.210000000
H    -6.729000000    -2.443000000     1.150000000
