201
-1245.34223
C    -1.676000000    -2.660000000     4.512000000
H    -0.879000000    -2.098000000     4.992000000
C    -1.295000000    -3.414000000     3.383000000
C    -2.305000000    -4.037000000     2.616000000
H    -2.168000000    -4.659000000     1.735000000
C     0.145000000    -3.334000000     2.826000000
O     1.077000000    -3.173000000     3.879000000
H     0.202000000    -2.436000000     2.192000000
O     0.515000000    -4.537000000     2.130000000
C     1.322000000    -4.556000000     1.045000000
C     0.653000000    -4.587000000    -0.161000000
H    -0.419000000    -4.752000000    -0.235000000
C     1.299000000    -4.457000000    -1.398000000
O     0.457000000    -4.422000000    -2.530000000
C     2.628000000    -4.087000000    -1.437000000
C     3.369000000    -3.583000000    -2.687000000
H     4.417000000    -3.850000000    -2.536000000
C     3.154000000    -2.141000000    -3.051000000
C     4.023000000    -1.097000000    -2.620000000
H     4.930000000    -1.439000000    -2.129000000
H     2.988000000    -4.242000000    -3.469000000
C     3.333000000    -4.085000000    -0.172000000
H     4.369000000    -3.782000000    -0.049000000
C     2.652000000    -4.312000000     1.065000000
C     3.338000000    -3.986000000     2.393000000
H     4.423000000    -4.097000000     2.346000000
H     2.964000000    -4.684000000     3.145000000
C     3.112000000    -2.532000000     2.830000000
C     3.988000000    -1.497000000     2.459000000
H     4.880000000    -1.709000000     1.874000000
C     2.011000000    -2.185000000     3.628000000
C     1.809000000    -0.910000000     4.097000000
H     1.112000000    -0.700000000     4.905000000
C     2.655000000     0.119000000     3.687000000
O     2.324000000     1.453000000     3.972000000
C     1.775000000     2.236000000     2.871000000
C     0.423000000     2.932000000     3.243000000
C     0.043000000     4.117000000     2.637000000
H     0.749000000     4.588000000     1.958000000
C    -0.360000000     2.481000000     4.329000000
H    -0.048000000     1.535000000     4.765000000
O     2.818000000     3.098000000     2.462000000
H     1.470000000     1.574000000     2.047000000
C     3.732000000    -0.168000000     2.849000000
C     4.687000000     0.866000000     2.407000000
H     5.662000000     0.414000000     2.213000000
H     4.807000000     1.546000000     3.252000000
C     4.220000000     1.664000000     1.169000000
C     4.810000000     1.229000000    -0.059000000
H     5.383000000     0.315000000    -0.189000000
C     3.340000000     2.724000000     1.254000000
C     2.981000000     3.341000000     0.086000000
H     2.134000000     4.023000000     0.096000000
C     3.406000000     2.833000000    -1.124000000
O     2.767000000     3.314000000    -2.208000000
C     1.758000000     2.520000000    -2.825000000
C     0.585000000     3.401000000    -3.071000000
C     0.364000000     4.677000000    -2.427000000
H     1.057000000     5.023000000    -1.664000000
C    -0.429000000     2.906000000    -3.912000000
H    -0.297000000     1.920000000    -4.351000000
O     2.203000000     1.836000000    -4.026000000
H     1.551000000     1.784000000    -2.034000000
C     4.246000000     1.741000000    -1.213000000
C     4.731000000     1.278000000    -2.580000000
H     5.734000000     0.846000000    -2.540000000
H     4.661000000     2.134000000    -3.254000000
C     3.805000000     0.223000000    -3.107000000
C     2.645000000     0.501000000    -3.831000000
C     1.840000000    -0.555000000    -4.288000000
H     0.902000000    -0.317000000    -4.784000000
C     2.123000000    -1.865000000    -3.986000000
O     1.088000000    -2.740000000    -4.270000000
C     0.176000000    -3.111000000    -3.229000000
H     0.274000000    -2.396000000    -2.399000000
C    -1.282000000    -2.955000000    -3.684000000
C    -2.305000000    -3.376000000    -2.817000000
H    -1.994000000    -3.867000000    -1.898000000
C    -1.554000000    -2.395000000    -4.949000000
H    -0.856000000    -2.036000000    -5.700000000
C    -2.899000000    -2.113000000    -5.262000000
O    -3.181000000    -1.373000000    -6.388000000
C    -3.886000000    -2.337000000    -4.340000000
H    -4.888000000    -1.978000000    -4.558000000
C    -3.606000000    -3.112000000    -3.198000000
O    -4.576000000    -3.237000000    -2.225000000
C    -4.583000000    -4.195000000    -1.199000000
C    -4.754000000    -3.825000000     0.182000000
H    -4.811000000    -2.780000000     0.474000000
C    -4.351000000    -5.534000000    -1.584000000
H    -4.065000000    -5.723000000    -2.616000000
C    -4.194000000    -6.540000000    -0.617000000
H    -3.952000000    -7.508000000    -1.047000000
C    -4.402000000    -6.217000000     0.783000000
H    -4.323000000    -7.052000000     1.475000000
C    -4.637000000    -4.875000000     1.151000000
O    -4.660000000    -4.580000000     2.444000000
C    -3.596000000    -4.093000000     3.125000000
C    -3.924000000    -3.386000000     4.330000000
H    -4.920000000    -3.447000000     4.760000000
C    -2.982000000    -2.604000000     4.991000000
O    -3.284000000    -1.967000000     6.203000000
C    -2.613000000    -0.887000000     6.692000000
C    -2.706000000     0.314000000     5.965000000
H    -3.390000000     0.422000000     5.127000000
C    -1.725000000    -0.956000000     7.751000000
H    -1.630000000    -1.853000000     8.357000000
C    -0.993000000     0.196000000     8.118000000
H    -0.283000000     0.009000000     8.920000000
C    -1.101000000     1.359000000     7.472000000
H    -0.507000000     2.256000000     7.630000000
C    -1.982000000     1.445000000     6.389000000
O    -2.248000000     2.629000000     5.709000000
C    -1.495000000     3.131000000     4.717000000
C    -1.898000000     4.247000000     3.971000000
H    -2.747000000     4.788000000     4.381000000
C    -1.099000000     4.786000000     2.961000000
O    -1.588000000     6.001000000     2.418000000
C    -0.961000000     6.611000000     1.361000000
C    -1.174000000     6.222000000     0.038000000
H    -1.953000000     5.515000000    -0.236000000
C    -0.050000000     7.622000000     1.633000000
H     0.050000000     7.950000000     2.665000000
C     0.707000000     8.234000000     0.596000000
H     1.466000000     8.949000000     0.904000000
C     0.390000000     8.074000000    -0.731000000
H     0.750000000     8.628000000    -1.594000000
C    -0.545000000     7.009000000    -0.980000000
O    -0.921000000     6.721000000    -2.259000000
C    -0.713000000     5.480000000    -2.806000000
C    -1.697000000     4.987000000    -3.641000000
H    -2.553000000     5.564000000    -3.982000000
C    -1.601000000     3.707000000    -4.140000000
O    -2.687000000     3.176000000    -4.879000000
C    -2.520000000     2.237000000    -5.843000000
C    -1.935000000     2.539000000    -7.054000000
H    -1.668000000     3.577000000    -7.233000000
C    -1.623000000     1.551000000    -8.017000000
H    -1.048000000     1.765000000    -8.915000000
C    -2.028000000     0.233000000    -7.735000000
H    -1.791000000    -0.598000000    -8.395000000
C    -2.709000000    -0.101000000    -6.542000000
C    -2.798000000     0.900000000    -5.565000000
H    -3.171000000     0.616000000    -4.584000000
O    -5.294000000     2.416000000     4.535000000
H    -5.917000000     1.744000000     4.258000000
H    -4.807000000     2.634000000     3.741000000
O    -6.196000000     9.062000000     2.198000000
H    -5.926000000     9.446000000     3.032000000
H    -5.415000000     8.608000000     1.880000000
O    -6.318000000     0.680000000     0.998000000
H    -5.871000000     0.234000000     0.279000000
H    -5.723000000     1.386000000     1.249000000
O    -4.277000000     7.319000000     1.501000000
H    -3.824000000     7.341000000     2.344000000
H    -4.530000000     6.402000000     1.390000000
O    -9.341000000     2.671000000     4.320000000
H    -8.625000000     3.093000000     3.844000000
H    -8.914000000     2.232000000     5.055000000
O    -4.616000000     0.251000000    -1.471000000
H    -3.682000000     0.098000000    -1.614000000
H    -4.766000000     1.138000000    -1.800000000
O    -4.587000000     2.822000000     7.495000000
H    -4.783000000     2.138000000     8.135000000
H    -4.359000000     2.345000000     6.697000000
O    -6.765000000    -1.347000000    -2.273000000
H    -7.212000000    -0.518000000    -2.443000000
H    -6.016000000    -1.108000000    -1.728000000
O    -6.955000000    -0.122000000     3.898000000
H    -7.888000000     0.029000000     3.745000000
H    -6.532000000     0.148000000     3.083000000
O    -5.466000000     5.559000000    -4.535000000
H    -5.113000000     6.447000000    -4.466000000
H    -5.233000000     5.145000000    -3.704000000
O    -7.681000000     4.455000000    -1.958000000
H    -7.795000000     3.772000000    -1.296000000
H    -6.850000000     4.872000000    -1.731000000
O    -5.673000000     7.639000000     5.071000000
H    -5.840000000     6.745000000     4.772000000
H    -4.750000000     7.791000000     4.869000000
O    -4.721000000     5.209000000    -2.042000000
H    -4.439000000     4.752000000    -1.249000000
H    -4.421000000     6.110000000    -1.919000000
O    -4.627000000     7.821000000    -1.234000000
H    -4.630000000     7.795000000    -0.278000000
H    -5.080000000     8.636000000    -1.453000000
O    -4.769000000     2.504000000    -3.161000000
H    -5.312000000     3.252000000    -2.910000000
H    -4.122000000     2.870000000    -3.764000000
O    -8.186000000     2.038000000    -0.566000000
H    -7.669000000     1.573000000     0.091000000
H    -8.788000000     2.580000000    -0.056000000
O    -7.120000000     4.454000000     3.630000000
H    -6.254000000     4.224000000     3.966000000
H    -6.942000000     4.978000000     2.849000000
O    -6.383000000     5.422000000     0.955000000
H    -6.670000000     5.955000000     0.214000000
H    -5.892000000     4.703000000     0.558000000
O    -8.921000000     0.529000000    -2.574000000
H    -8.894000000     0.914000000    -1.698000000
H    -8.802000000     1.271000000    -3.166000000
