201
-1273.21585
C    -1.305000000    -1.662000000     4.898000000
H    -0.609000000    -0.936000000     5.309000000
C    -0.901000000    -2.686000000     4.021000000
C    -1.866000000    -3.642000000     3.620000000
H    -1.562000000    -4.427000000     2.933000000
C     0.514000000    -2.605000000     3.433000000
O     1.586000000    -2.171000000     4.395000000
H     0.440000000    -1.843000000     2.643000000
O     0.844000000    -3.868000000     2.817000000
C     1.458000000    -3.937000000     1.575000000
C     0.613000000    -4.228000000     0.515000000
H    -0.444000000    -4.308000000     0.757000000
C     1.150000000    -4.146000000    -0.792000000
O     0.303000000    -4.338000000    -1.924000000
C     2.550000000    -3.928000000    -0.999000000
C     3.087000000    -3.891000000    -2.416000000
H     4.160000000    -4.094000000    -2.386000000
C     2.886000000    -2.453000000    -3.016000000
C     3.886000000    -1.505000000    -2.849000000
H     4.701000000    -1.691000000    -2.154000000
H     2.592000000    -4.567000000    -3.117000000
C     3.297000000    -3.591000000     0.102000000
H     4.358000000    -3.400000000    -0.040000000
C     2.783000000    -3.681000000     1.427000000
C     3.629000000    -3.270000000     2.672000000
H     4.631000000    -3.678000000     2.523000000
H     3.339000000    -3.904000000     3.512000000
C     3.531000000    -1.793000000     2.993000000
C     4.367000000    -0.885000000     2.342000000
H     5.107000000    -1.255000000     1.637000000
C     2.586000000    -1.375000000     3.874000000
C     2.466000000     0.037000000     4.163000000
H     1.731000000     0.416000000     4.869000000
C     3.247000000     0.953000000     3.467000000
O     2.874000000     2.311000000     3.664000000
C     2.220000000     2.881000000     2.504000000
C     0.982000000     3.678000000     2.956000000
C     0.476000000     4.661000000     2.079000000
H     0.943000000     4.870000000     1.120000000
C     0.323000000     3.491000000     4.185000000
H     0.690000000     2.758000000     4.899000000
O     3.195000000     3.598000000     1.700000000
H     1.845000000     2.069000000     1.864000000
C     4.178000000     0.501000000     2.536000000
C     5.120000000     1.577000000     1.952000000
H     6.087000000     1.113000000     1.743000000
H     5.267000000     2.425000000     2.624000000
C     4.547000000     2.020000000     0.584000000
C     4.912000000     1.430000000    -0.606000000
H     5.600000000     0.589000000    -0.639000000
C     3.580000000     2.997000000     0.588000000
C     3.032000000     3.392000000    -0.619000000
H     2.322000000     4.214000000    -0.651000000
C     3.257000000     2.672000000    -1.796000000
O     2.502000000     3.031000000    -2.892000000
C     1.615000000     2.001000000    -3.511000000
C     0.272000000     2.591000000    -3.894000000
C    -0.361000000     3.404000000    -3.013000000
H     0.059000000     3.674000000    -2.047000000
C    -0.327000000     2.180000000    -5.098000000
H     0.094000000     1.553000000    -5.880000000
O     2.329000000     1.358000000    -4.578000000
H     1.446000000     1.295000000    -2.684000000
C     4.306000000     1.710000000    -1.789000000
C     4.707000000     0.918000000    -3.002000000
H     5.693000000     0.456000000    -2.921000000
H     4.861000000     1.682000000    -3.767000000
C     3.715000000    -0.182000000    -3.374000000
C     2.631000000     0.047000000    -4.231000000
C     1.651000000    -0.918000000    -4.342000000
H     0.731000000    -0.644000000    -4.852000000
C     1.714000000    -2.136000000    -3.716000000
O     0.622000000    -2.988000000    -3.883000000
C    -0.163000000    -3.174000000    -2.662000000
H    -0.046000000    -2.313000000    -1.988000000
C    -1.657000000    -3.211000000    -2.875000000
C    -2.544000000    -3.717000000    -1.921000000
H    -2.211000000    -4.271000000    -1.047000000
C    -2.224000000    -2.818000000    -4.099000000
H    -1.565000000    -2.540000000    -4.918000000
C    -3.601000000    -2.602000000    -4.230000000
O    -4.137000000    -1.995000000    -5.311000000
C    -4.482000000    -3.028000000    -3.213000000
H    -5.554000000    -2.887000000    -3.324000000
C    -3.915000000    -3.658000000    -2.102000000
O    -4.797000000    -3.996000000    -1.065000000
C    -4.444000000    -4.711000000     0.036000000
C    -4.426000000    -4.114000000     1.279000000
H    -4.703000000    -3.076000000     1.446000000
C    -4.251000000    -6.094000000    -0.034000000
H    -4.129000000    -6.588000000    -0.994000000
C    -4.009000000    -6.860000000     1.101000000
H    -3.821000000    -7.924000000     0.983000000
C    -3.896000000    -6.249000000     2.332000000
H    -3.753000000    -6.799000000     3.258000000
C    -4.138000000    -4.880000000     2.392000000
O    -4.169000000    -4.340000000     3.643000000
C    -3.178000000    -3.534000000     4.128000000
C    -3.503000000    -2.481000000     4.935000000
H    -4.543000000    -2.384000000     5.238000000
C    -2.572000000    -1.569000000     5.417000000
O    -3.058000000    -0.514000000     6.204000000
C    -2.258000000     0.553000000     6.568000000
C    -2.375000000     1.828000000     5.980000000
H    -3.055000000     2.073000000     5.168000000
C    -1.337000000     0.352000000     7.641000000
H    -1.386000000    -0.625000000     8.113000000
C    -0.533000000     1.389000000     8.110000000
H     0.167000000     1.205000000     8.920000000
C    -0.707000000     2.684000000     7.549000000
H    -0.015000000     3.489000000     7.784000000
C    -1.527000000     2.839000000     6.444000000
O    -1.521000000     4.053000000     5.763000000
C    -0.858000000     4.211000000     4.559000000
C    -1.213000000     5.314000000     3.725000000
H    -1.955000000     6.009000000     4.109000000
C    -0.564000000     5.450000000     2.489000000
O    -0.962000000     6.547000000     1.819000000
C    -0.980000000     6.529000000     0.480000000
C    -1.548000000     5.545000000    -0.322000000
H    -2.144000000     4.708000000     0.033000000
C    -0.483000000     7.715000000    -0.053000000
H    -0.089000000     8.462000000     0.632000000
C    -0.325000000     7.724000000    -1.461000000
H     0.001000000     8.678000000    -1.866000000
C    -0.840000000     6.774000000    -2.262000000
H    -0.746000000     6.938000000    -3.333000000
C    -1.496000000     5.651000000    -1.699000000
O    -2.281000000     4.808000000    -2.440000000
C    -1.686000000     3.862000000    -3.297000000
C    -2.371000000     3.464000000    -4.503000000
H    -3.306000000     3.943000000    -4.782000000
C    -1.618000000     2.636000000    -5.344000000
O    -2.185000000     2.191000000    -6.454000000
C    -2.395000000     0.882000000    -6.700000000
C    -2.185000000     0.505000000    -8.014000000
H    -1.818000000     1.234000000    -8.732000000
C    -2.516000000    -0.765000000    -8.331000000
H    -2.419000000    -1.111000000    -9.357000000
C    -3.113000000    -1.673000000    -7.405000000
H    -3.471000000    -2.687000000    -7.562000000
C    -3.333000000    -1.210000000    -6.145000000
C    -2.925000000     0.008000000    -5.748000000
H    -3.009000000     0.252000000    -4.692000000
O    -5.031000000     4.741000000     4.005000000
H    -5.919000000     4.530000000     4.292000000
H    -4.704000000     3.928000000     3.621000000
O    -3.436000000    -0.988000000     0.522000000
H    -3.713000000    -1.316000000    -0.333000000
H    -3.289000000    -0.053000000     0.384000000
O    -8.859000000     1.549000000     0.544000000
H    -9.068000000     0.844000000     1.157000000
H    -8.280000000     2.131000000     1.037000000
O    -8.416000000     1.426000000     4.083000000
H    -7.532000000     1.420000000     4.450000000
H    -8.816000000     0.620000000     4.408000000
O    -6.788000000    -1.328000000    -0.111000000
H    -7.234000000    -1.544000000    -0.930000000
H    -6.263000000    -0.556000000    -0.320000000
O    -4.391000000     6.620000000    -3.289000000
H    -4.936000000     6.272000000    -3.995000000
H    -4.164000000     5.854000000    -2.762000000
O    -5.932000000     0.737000000     5.140000000
H    -5.194000000     0.822000000     4.536000000
H    -5.852000000    -0.149000000     5.493000000
O    -6.998000000     3.290000000    -2.972000000
H    -7.804000000     3.773000000    -2.792000000
H    -6.373000000     3.617000000    -2.325000000
O    -5.286000000     4.624000000    -1.493000000
H    -4.865000000     3.940000000    -0.972000000
H    -5.531000000     5.294000000    -0.855000000
O    -4.174000000     5.916000000     1.620000000
H    -4.135000000     4.965000000     1.519000000
H    -4.317000000     6.051000000     2.557000000
O    -5.392000000     0.840000000    -0.865000000
H    -5.188000000     1.613000000    -0.339000000
H    -5.397000000     1.159000000    -1.768000000
O    -4.755000000     0.011000000     2.634000000
H    -4.128000000    -0.249000000     1.959000000
H    -4.870000000     0.952000000     2.505000000
O    -7.265000000     3.637000000     1.391000000
H    -7.199000000     4.490000000     0.962000000
H    -6.363000000     3.319000000     1.433000000
O    -8.569000000     0.813000000    -1.942000000
H    -8.147000000     1.592000000    -2.305000000
H    -8.686000000     1.015000000    -1.014000000
O    -7.522000000     4.100000000     4.838000000
H    -8.035000000     4.907000000     4.869000000
H    -7.862000000     3.628000000     4.079000000
O    -3.768000000     6.058000000     6.457000000
H    -4.160000000     5.657000000     7.233000000
H    -3.672000000     5.335000000     5.837000000
O    -6.301000000     6.566000000     0.436000000
H    -5.454000000     6.426000000     0.857000000
H    -6.570000000     7.439000000     0.723000000
O    -3.532000000     8.337000000     0.337000000
H    -4.219000000     8.728000000     0.878000000
H    -3.683000000     7.394000000     0.403000000
O    -7.075000000    -1.141000000     2.658000000
H    -6.179000000    -0.922000000     2.915000000
H    -7.032000000    -1.248000000     1.708000000
