201
-1251.78941
C    -0.248000000    -0.848000000     5.085000000
H     0.611000000    -0.200000000     5.240000000
C    -0.143000000    -1.975000000     4.316000000
C    -1.226000000    -2.913000000     4.257000000
H    -1.130000000    -3.777000000     3.604000000
C     1.139000000    -2.185000000     3.484000000
O     2.342000000    -1.727000000     4.170000000
H     1.079000000    -1.604000000     2.552000000
O     1.302000000    -3.600000000     3.140000000
C     1.689000000    -3.899000000     1.854000000
C     0.620000000    -4.268000000     1.001000000
H    -0.435000000    -4.374000000     1.242000000
C     0.890000000    -4.562000000    -0.354000000
O    -0.111000000    -4.917000000    -1.228000000
C     2.142000000    -4.267000000    -0.859000000
C     2.482000000    -4.380000000    -2.372000000
H     3.572000000    -4.446000000    -2.357000000
C     2.110000000    -3.079000000    -3.108000000
C     3.126000000    -2.076000000    -3.258000000
H     4.163000000    -2.236000000    -2.974000000
H     2.027000000    -5.248000000    -2.853000000
C     3.121000000    -3.771000000    -0.042000000
H     4.061000000    -3.536000000    -0.535000000
C     2.947000000    -3.624000000     1.368000000
C     4.036000000    -3.063000000     2.283000000
H     5.025000000    -3.403000000     1.970000000
H     3.929000000    -3.468000000     3.291000000
C     3.988000000    -1.514000000     2.403000000
C     4.584000000    -0.756000000     1.457000000
H     5.093000000    -1.112000000     0.565000000
C     3.134000000    -0.950000000     3.400000000
C     2.986000000     0.438000000     3.444000000
H     2.215000000     0.874000000     4.074000000
C     3.644000000     1.270000000     2.518000000
O     3.469000000     2.566000000     2.543000000
C     2.508000000     3.042000000     1.465000000
C     1.391000000     3.977000000     2.045000000
C     0.640000000     4.696000000     1.148000000
H     0.856000000     4.488000000     0.103000000
C     1.171000000     4.098000000     3.444000000
H     1.862000000     3.539000000     4.069000000
O     3.404000000     3.691000000     0.493000000
H     2.057000000     2.157000000     0.991000000
C     4.476000000     0.666000000     1.487000000
C     5.297000000     1.556000000     0.557000000
H     6.199000000     1.013000000     0.266000000
H     5.750000000     2.411000000     1.065000000
C     4.487000000     1.907000000    -0.687000000
C     4.603000000     1.077000000    -1.800000000
H     5.286000000     0.233000000    -1.845000000
C     3.605000000     3.013000000    -0.623000000
C     2.791000000     3.256000000    -1.699000000
H     2.072000000     4.059000000    -1.554000000
C     2.876000000     2.390000000    -2.803000000
O     1.958000000     2.526000000    -3.816000000
C     0.826000000     1.629000000    -3.866000000
C    -0.449000000     2.361000000    -4.360000000
C    -0.574000000     3.716000000    -3.993000000
H     0.315000000     4.301000000    -3.769000000
C    -1.614000000     1.687000000    -4.709000000
H    -1.448000000     0.636000000    -4.930000000
O     1.087000000     0.627000000    -4.819000000
H     0.685000000     1.183000000    -2.870000000
C     3.730000000     1.269000000    -2.835000000
C     3.792000000     0.225000000    -4.042000000
H     4.770000000    -0.257000000    -4.103000000
H     3.646000000     0.724000000    -5.002000000
C     2.761000000    -0.821000000    -3.837000000
C     1.461000000    -0.652000000    -4.408000000
C     0.503000000    -1.630000000    -4.156000000
H    -0.560000000    -1.462000000    -4.305000000
C     0.821000000    -2.796000000    -3.520000000
O    -0.202000000    -3.715000000    -3.230000000
C    -0.690000000    -3.715000000    -1.897000000
H    -0.411000000    -2.809000000    -1.339000000
C    -2.185000000    -3.848000000    -1.997000000
C    -2.858000000    -4.256000000    -0.855000000
H    -2.338000000    -4.585000000     0.041000000
C    -2.959000000    -3.317000000    -2.988000000
H    -2.523000000    -3.044000000    -3.945000000
C    -4.384000000    -3.322000000    -2.954000000
O    -5.134000000    -2.900000000    -4.040000000
C    -5.013000000    -3.640000000    -1.773000000
H    -6.094000000    -3.687000000    -1.666000000
C    -4.244000000    -4.150000000    -0.761000000
O    -4.942000000    -4.670000000     0.386000000
C    -4.345000000    -5.087000000     1.531000000
C    -4.197000000    -4.190000000     2.576000000
H    -4.487000000    -3.154000000     2.421000000
C    -3.843000000    -6.401000000     1.666000000
H    -3.916000000    -7.034000000     0.785000000
C    -3.062000000    -6.782000000     2.795000000
H    -2.687000000    -7.801000000     2.831000000
C    -2.925000000    -5.838000000     3.764000000
H    -2.314000000    -6.079000000     4.630000000
C    -3.508000000    -4.595000000     3.773000000
O    -3.416000000    -3.639000000     4.805000000
C    -2.412000000    -2.670000000     4.889000000
C    -2.548000000    -1.553000000     5.692000000
H    -3.437000000    -1.428000000     6.305000000
C    -1.438000000    -0.683000000     5.819000000
O    -1.705000000     0.342000000     6.748000000
C    -0.822000000     1.467000000     6.860000000
C    -1.036000000     2.582000000     6.032000000
H    -1.734000000     2.654000000     5.202000000
C     0.084000000     1.581000000     7.925000000
H     0.226000000     0.736000000     8.593000000
C     0.870000000     2.743000000     8.065000000
H     1.640000000     2.721000000     8.832000000
C     0.748000000     3.769000000     7.145000000
H     1.483000000     4.567000000     7.199000000
C    -0.203000000     3.727000000     6.092000000
O    -0.268000000     4.770000000     5.201000000
C     0.078000000     4.804000000     3.864000000
C    -0.692000000     5.543000000     2.941000000
H    -1.583000000     6.051000000     3.301000000
C    -0.452000000     5.518000000     1.604000000
O    -1.451000000     5.995000000     0.761000000
C    -1.040000000     6.365000000    -0.478000000
C    -1.676000000     5.930000000    -1.625000000
H    -2.576000000     5.337000000    -1.490000000
C     0.029000000     7.268000000    -0.572000000
H     0.482000000     7.721000000     0.306000000
C     0.623000000     7.475000000    -1.863000000
H     1.521000000     8.078000000    -1.970000000
C    -0.056000000     7.037000000    -2.987000000
H     0.306000000     7.276000000    -3.984000000
C    -1.183000000     6.279000000    -2.858000000
O    -1.831000000     5.722000000    -3.946000000
C    -1.769000000     4.401000000    -4.131000000
C    -2.873000000     3.708000000    -4.559000000
H    -3.810000000     4.234000000    -4.726000000
C    -2.818000000     2.381000000    -4.829000000
O    -4.028000000     1.734000000    -5.027000000
C    -4.151000000     0.426000000    -5.449000000
C    -4.023000000     0.072000000    -6.810000000
H    -3.853000000     0.892000000    -7.503000000
C    -4.197000000    -1.241000000    -7.198000000
H    -4.066000000    -1.555000000    -8.230000000
C    -4.579000000    -2.253000000    -6.265000000
H    -4.632000000    -3.292000000    -6.579000000
C    -4.722000000    -1.923000000    -4.908000000
C    -4.482000000    -0.584000000    -4.552000000
H    -4.558000000    -0.431000000    -3.478000000
O    -4.165000000     7.192000000    -4.627000000
H    -3.813000000     6.588000000    -3.972000000
H    -3.410000000     7.423000000    -5.169000000
O    -4.936000000     4.593000000    -2.441000000
H    -4.536000000     3.821000000    -2.042000000
H    -5.446000000     4.991000000    -1.736000000
O    -5.304000000     4.283000000     3.668000000
H    -5.073000000     3.886000000     2.828000000
H    -4.641000000     4.959000000     3.804000000
O    -7.169000000     1.380000000     1.533000000
H    -6.477000000     1.685000000     2.120000000
H    -7.129000000     0.425000000     1.591000000
O    -7.365000000    -0.737000000    -2.238000000
H    -7.156000000     0.135000000    -1.903000000
H    -8.033000000    -1.070000000    -1.639000000
O    -7.337000000     0.801000000     4.985000000
H    -7.483000000     0.160000000     5.680000000
H    -6.736000000     0.366000000     4.380000000
O    -6.061000000    -0.751000000     2.931000000
H    -5.128000000    -0.539000000     2.948000000
H    -6.140000000    -1.532000000     3.479000000
O   -10.253000000     0.951000000     1.969000000
H    -9.338000000     1.172000000     2.142000000
H   -10.344000000     1.038000000     1.020000000
O    -8.413000000     4.481000000     1.252000000
H    -8.222000000     3.854000000     1.949000000
H    -7.576000000     4.606000000     0.805000000
O    -6.557000000     3.874000000    -4.631000000
H    -6.123000000     4.219000000    -3.851000000
H    -5.978000000     3.177000000    -4.939000000
O    -4.025000000     7.665000000     1.245000000
H    -3.262000000     7.138000000     1.007000000
H    -4.472000000     7.828000000     0.415000000
O    -5.873000000     5.086000000     0.343000000
H    -5.508000000     5.816000000     0.843000000
H    -5.388000000     4.320000000     0.648000000
O    -7.241000000     2.001000000    -1.148000000
H    -6.293000000     1.899000000    -1.225000000
H    -7.425000000     1.841000000    -0.223000000
O    -4.033000000     8.070000000     3.975000000
H    -3.369000000     8.722000000     4.195000000
H    -3.738000000     7.699000000     3.143000000
O    -7.370000000     3.099000000     5.979000000
H    -6.512000000     3.466000000     5.767000000
H    -7.456000000     2.340000000     5.403000000
O    -6.660000000     8.130000000     1.452000000
H    -6.324000000     8.347000000     2.322000000
H    -7.040000000     7.257000000     1.553000000
O    -4.162000000     1.262000000     3.739000000
H    -3.911000000     1.557000000     2.863000000
H    -3.739000000     1.884000000     4.331000000
O    -8.842000000     4.208000000    -1.687000000
H    -8.143000000     3.565000000    -1.808000000
H    -9.136000000     4.076000000    -0.785000000
O    -9.228000000    -0.957000000    -0.290000000
H   -10.083000000    -0.549000000    -0.423000000
H    -9.402000000    -1.691000000     0.299000000
