201
-1259.21684
C    -0.561000000    -1.482000000     5.212000000
H     0.426000000    -1.156000000     5.529000000
C    -0.661000000    -2.150000000     3.979000000
C    -1.930000000    -2.455000000     3.530000000
H    -2.051000000    -2.983000000     2.588000000
C     0.524000000    -2.565000000     3.084000000
O     1.727000000    -2.576000000     3.926000000
H     0.738000000    -1.892000000     2.241000000
O     0.340000000    -3.876000000     2.482000000
C     0.899000000    -4.127000000     1.245000000
C    -0.036000000    -4.359000000     0.270000000
H    -1.101000000    -4.323000000     0.487000000
C     0.285000000    -4.576000000    -1.038000000
O    -0.801000000    -4.528000000    -1.873000000
C     1.621000000    -4.487000000    -1.400000000
C     1.945000000    -4.482000000    -2.845000000
H     2.969000000    -4.853000000    -2.918000000
C     1.871000000    -3.098000000    -3.384000000
C     3.057000000    -2.294000000    -3.444000000
H     4.024000000    -2.691000000    -3.146000000
H     1.218000000    -5.116000000    -3.357000000
C     2.608000000    -4.170000000    -0.489000000
H     3.655000000    -3.983000000    -0.711000000
C     2.248000000    -4.147000000     0.902000000
C     3.294000000    -3.898000000     1.995000000
H     4.307000000    -4.185000000     1.705000000
H     2.967000000    -4.519000000     2.831000000
C     3.492000000    -2.406000000     2.313000000
C     4.406000000    -1.615000000     1.586000000
H     5.165000000    -2.006000000     0.914000000
C     2.758000000    -1.861000000     3.358000000
C     2.952000000    -0.541000000     3.694000000
H     2.357000000    -0.138000000     4.509000000
C     3.796000000     0.295000000     2.918000000
O     3.615000000     1.675000000     3.047000000
C     2.782000000     2.374000000     2.059000000
C     1.966000000     3.420000000     2.696000000
C     1.554000000     4.541000000     1.911000000
H     1.969000000     4.701000000     0.919000000
C     1.287000000     3.156000000     3.931000000
H     1.501000000     2.206000000     4.414000000
O     3.655000000     3.017000000     1.052000000
H     2.115000000     1.639000000     1.586000000
C     4.427000000    -0.250000000     1.789000000
C     5.395000000     0.666000000     0.968000000
H     6.296000000     0.115000000     0.692000000
H     5.709000000     1.360000000     1.750000000
C     4.638000000     1.196000000    -0.208000000
C     4.826000000     0.492000000    -1.472000000
H     5.374000000    -0.444000000    -1.550000000
C     3.913000000     2.358000000    -0.152000000
C     3.340000000     2.868000000    -1.324000000
H     2.749000000     3.774000000    -1.210000000
C     3.374000000     2.152000000    -2.532000000
O     2.547000000     2.514000000    -3.556000000
C     1.328000000     1.768000000    -3.748000000
C     0.080000000     2.720000000    -4.106000000
C    -0.017000000     3.877000000    -3.330000000
H     0.709000000     4.059000000    -2.541000000
C    -0.961000000     2.370000000    -4.995000000
H    -0.912000000     1.506000000    -5.652000000
O     1.555000000     0.811000000    -4.766000000
H     1.065000000     1.263000000    -2.807000000
C     4.222000000     0.977000000    -2.650000000
C     4.197000000     0.046000000    -3.827000000
H     5.134000000    -0.497000000    -3.967000000
H     4.112000000     0.626000000    -4.749000000
C     2.991000000    -0.946000000    -3.806000000
C     1.722000000    -0.500000000    -4.327000000
C     0.513000000    -1.230000000    -4.307000000
H    -0.402000000    -0.818000000    -4.726000000
C     0.646000000    -2.557000000    -3.800000000
O    -0.535000000    -3.243000000    -3.694000000
C    -1.248000000    -3.320000000    -2.456000000
H    -0.832000000    -2.536000000    -1.806000000
C    -2.744000000    -3.303000000    -2.481000000
C    -3.556000000    -3.948000000    -1.521000000
H    -3.144000000    -4.590000000    -0.746000000
C    -3.353000000    -2.354000000    -3.384000000
H    -2.702000000    -1.911000000    -4.134000000
C    -4.751000000    -2.167000000    -3.324000000
O    -5.372000000    -1.246000000    -4.159000000
C    -5.503000000    -2.795000000    -2.381000000
H    -6.573000000    -2.623000000    -2.458000000
C    -4.924000000    -3.675000000    -1.472000000
O    -5.704000000    -4.323000000    -0.520000000
C    -5.206000000    -4.433000000     0.775000000
C    -5.011000000    -3.285000000     1.535000000
H    -5.081000000    -2.313000000     1.055000000
C    -5.191000000    -5.647000000     1.400000000
H    -5.463000000    -6.544000000     0.849000000
C    -4.748000000    -5.797000000     2.758000000
H    -4.673000000    -6.727000000     3.317000000
C    -4.426000000    -4.653000000     3.490000000
H    -4.146000000    -4.761000000     4.535000000
C    -4.584000000    -3.425000000     2.859000000
O    -4.331000000    -2.336000000     3.598000000
C    -3.084000000    -2.121000000     4.172000000
C    -2.952000000    -1.344000000     5.365000000
H    -3.861000000    -1.076000000     5.898000000
C    -1.719000000    -1.132000000     5.949000000
O    -1.683000000    -0.423000000     7.089000000
C    -0.788000000     0.607000000     7.225000000
C    -0.854000000     1.538000000     6.222000000
H    -1.688000000     1.590000000     5.526000000
C     0.303000000     0.591000000     8.131000000
H     0.399000000    -0.262000000     8.799000000
C     1.227000000     1.649000000     8.134000000
H     2.080000000     1.639000000     8.808000000
C     1.014000000     2.715000000     7.271000000
H     1.670000000     3.566000000     7.431000000
C    -0.005000000     2.662000000     6.315000000
O    -0.350000000     3.720000000     5.564000000
C     0.316000000     4.026000000     4.429000000
C     0.120000000     5.226000000     3.788000000
H    -0.532000000     5.983000000     4.215000000
C     0.724000000     5.437000000     2.521000000
O     0.517000000     6.646000000     1.873000000
C     0.498000000     6.876000000     0.476000000
C    -0.471000000     6.192000000    -0.323000000
H    -1.255000000     5.549000000     0.070000000
C     1.397000000     7.783000000    -0.091000000
H     2.041000000     8.382000000     0.548000000
C     1.360000000     7.994000000    -1.472000000
H     2.093000000     8.669000000    -1.906000000
C     0.468000000     7.295000000    -2.247000000
H     0.485000000     7.383000000    -3.330000000
C    -0.485000000     6.396000000    -1.704000000
O    -1.365000000     5.771000000    -2.590000000
C    -1.182000000     4.662000000    -3.401000000
C    -2.234000000     4.264000000    -4.235000000
H    -3.117000000     4.896000000    -4.279000000
C    -2.105000000     3.148000000    -5.033000000
O    -3.105000000     2.651000000    -5.834000000
C    -3.461000000     1.307000000    -6.035000000
C    -3.090000000     0.692000000    -7.216000000
H    -2.431000000     1.218000000    -7.902000000
C    -3.443000000    -0.641000000    -7.420000000
H    -3.173000000    -1.135000000    -8.349000000
C    -4.175000000    -1.341000000    -6.399000000
H    -4.457000000    -2.385000000    -6.516000000
C    -4.601000000    -0.676000000    -5.297000000
C    -4.227000000     0.664000000    -5.059000000
H    -4.575000000     1.271000000    -4.226000000
O    -6.190000000     4.156000000     6.769000000
H    -6.647000000     4.856000000     7.234000000
H    -5.270000000     4.422000000     6.779000000
O    -6.251000000     3.153000000     0.386000000
H    -5.617000000     3.005000000     1.087000000
H    -5.725000000     3.171000000    -0.414000000
O    -9.474000000     4.842000000     2.852000000
H    -8.931000000     4.409000000     2.193000000
H    -9.068000000     4.609000000     3.687000000
O    -3.873000000     2.489000000     4.996000000
H    -3.764000000     2.337000000     4.057000000
H    -3.710000000     3.426000000     5.107000000
O    -5.620000000     4.353000000     3.338000000
H    -5.775000000     3.591000000     3.896000000
H    -4.837000000     4.127000000     2.836000000
O    -6.951000000     0.659000000    -2.498000000
H    -6.202000000     0.113000000    -2.734000000
H    -7.026000000     0.566000000    -1.548000000
O    -5.475000000     3.518000000    -2.017000000
H    -5.345000000     4.363000000    -2.448000000
H    -6.303000000     3.193000000    -2.371000000
O    -8.541000000     0.756000000     3.593000000
H    -7.589000000     0.658000000     3.583000000
H    -8.706000000     1.419000000     4.263000000
O    -8.299000000     3.511000000     5.217000000
H    -8.945000000     3.590000000     5.919000000
H    -7.467000000     3.738000000     5.632000000
O    -3.654000000     4.941000000     6.629000000
H    -3.401000000     5.839000000     6.416000000
H    -3.042000000     4.676000000     7.315000000
O    -3.356000000     5.863000000     1.592000000
H    -4.293000000     5.954000000     1.420000000
H    -3.211000000     4.918000000     1.638000000
O    -6.471000000    -0.438000000     0.170000000
H    -6.161000000    -0.005000000     0.966000000
H    -7.139000000    -1.051000000     0.476000000
O    -2.613000000     8.342000000     0.766000000
H    -3.021000000     8.407000000    -0.098000000
H    -2.921000000     7.505000000     1.113000000
O    -5.993000000     6.106000000     1.059000000
H    -6.712000000     5.933000000     0.451000000
H    -6.207000000     5.589000000     1.836000000
O    -8.768000000     1.893000000     1.165000000
H    -8.455000000     1.364000000     1.900000000
H    -7.990000000     2.357000000     0.856000000
O    -6.194000000     1.183000000     6.871000000
H    -5.540000000     1.295000000     6.181000000
H    -6.732000000     1.973000000     6.823000000
O    -6.066000000    -0.073000000     3.918000000
H    -5.505000000     0.488000000     3.383000000
H    -5.663000000    -0.939000000     3.861000000
O    -3.575000000     2.275000000     8.077000000
H    -3.028000000     3.046000000     7.924000000
H    -4.136000000     2.223000000     7.303000000
O    -5.436000000     7.057000000     3.910000000
H    -4.520000000     7.335000000     3.909000000
H    -5.398000000     6.107000000     3.793000000
