201
-1236.90610
C    -1.514000000     0.173000000     5.352000000
H    -0.527000000     0.547000000     5.612000000
C    -1.624000000    -0.892000000     4.415000000
C    -2.904000000    -1.110000000     3.841000000
H    -3.005000000    -1.807000000     3.014000000
C    -0.348000000    -1.466000000     3.770000000
O     0.816000000    -1.280000000     4.607000000
H    -0.227000000    -1.013000000     2.775000000
O    -0.466000000    -2.879000000     3.615000000
C     0.199000000    -3.590000000     2.560000000
C    -0.646000000    -4.035000000     1.527000000
H    -1.727000000    -3.985000000     1.622000000
C    -0.161000000    -4.498000000     0.297000000
O    -1.074000000    -4.746000000    -0.708000000
C     1.196000000    -4.726000000     0.129000000
C     1.780000000    -5.367000000    -1.177000000
H     2.811000000    -5.638000000    -0.939000000
C     1.963000000    -4.246000000    -2.237000000
C     3.130000000    -3.447000000    -2.248000000
H     3.858000000    -3.724000000    -1.490000000
H     1.244000000    -6.244000000    -1.546000000
C     2.095000000    -4.377000000     1.163000000
H     3.154000000    -4.586000000     1.040000000
C     1.633000000    -3.807000000     2.373000000
C     2.618000000    -3.498000000     3.480000000
H     3.587000000    -3.981000000     3.335000000
H     2.273000000    -3.853000000     4.453000000
C     2.915000000    -1.991000000     3.495000000
C     4.037000000    -1.518000000     2.818000000
H     4.683000000    -2.234000000     2.316000000
C     2.040000000    -1.035000000     3.963000000
C     2.309000000     0.315000000     3.842000000
H     1.505000000     0.919000000     4.256000000
C     3.385000000     0.803000000     3.175000000
O     3.487000000     2.118000000     3.052000000
C     2.943000000     2.523000000     1.785000000
C     2.152000000     3.853000000     1.945000000
C     2.213000000     4.880000000     0.960000000
H     2.811000000     4.706000000     0.069000000
C     1.369000000     4.056000000     3.099000000
H     1.211000000     3.197000000     3.745000000
O     4.044000000     2.615000000     0.885000000
H     2.233000000     1.745000000     1.468000000
C     4.277000000    -0.135000000     2.578000000
C     5.399000000     0.325000000     1.667000000
H     6.182000000    -0.435000000     1.714000000
H     5.841000000     1.216000000     2.118000000
C     4.872000000     0.557000000     0.253000000
C     4.913000000    -0.465000000    -0.683000000
H     5.355000000    -1.419000000    -0.407000000
C     4.243000000     1.724000000    -0.086000000
C     3.758000000     2.019000000    -1.388000000
H     3.313000000     2.991000000    -1.588000000
C     3.786000000     0.944000000    -2.236000000
O     3.056000000     1.175000000    -3.425000000
C     1.796000000     0.378000000    -3.574000000
C     0.679000000     1.284000000    -4.125000000
C     0.618000000     2.689000000    -3.878000000
H     1.378000000     3.126000000    -3.234000000
C    -0.453000000     0.750000000    -4.772000000
H    -0.531000000    -0.323000000    -4.924000000
O     2.036000000    -0.714000000    -4.420000000
H     1.487000000     0.011000000    -2.584000000
C     4.420000000    -0.283000000    -1.986000000
C     4.468000000    -1.407000000    -3.004000000
H     5.330000000    -2.043000000    -2.790000000
H     4.644000000    -0.885000000    -3.947000000
C     3.243000000    -2.296000000    -3.050000000
C     2.118000000    -1.955000000    -3.878000000
C     0.971000000    -2.745000000    -3.925000000
H     0.121000000    -2.517000000    -4.563000000
C     0.884000000    -3.887000000    -3.107000000
O    -0.337000000    -4.357000000    -2.956000000
C    -1.155000000    -3.864000000    -1.852000000
H    -0.663000000    -2.929000000    -1.544000000
C    -2.624000000    -3.683000000    -2.151000000
C    -3.539000000    -3.178000000    -1.258000000
H    -3.105000000    -2.928000000    -0.293000000
C    -2.964000000    -3.794000000    -3.470000000
H    -2.358000000    -4.300000000    -4.217000000
C    -4.286000000    -3.481000000    -3.771000000
O    -4.648000000    -3.351000000    -5.141000000
C    -5.248000000    -3.109000000    -2.864000000
H    -6.295000000    -3.117000000    -3.158000000
C    -4.906000000    -2.903000000    -1.558000000
O    -5.733000000    -2.348000000    -0.664000000
C    -5.704000000    -2.643000000     0.694000000
C    -5.585000000    -1.564000000     1.589000000
H    -5.383000000    -0.540000000     1.285000000
C    -5.858000000    -3.968000000     1.228000000
H    -6.029000000    -4.820000000     0.573000000
C    -5.835000000    -4.169000000     2.588000000
H    -6.034000000    -5.144000000     3.026000000
C    -5.644000000    -3.078000000     3.495000000
H    -5.530000000    -3.268000000     4.559000000
C    -5.480000000    -1.788000000     2.911000000
O    -5.268000000    -0.663000000     3.739000000
C    -3.953000000    -0.390000000     4.254000000
C    -3.892000000     0.625000000     5.193000000
H    -4.788000000     1.197000000     5.423000000
C    -2.670000000     0.862000000     5.792000000
O    -2.491000000     1.905000000     6.620000000
C    -1.429000000     2.765000000     6.482000000
C    -1.295000000     3.592000000     5.362000000
H    -1.961000000     3.466000000     4.512000000
C    -0.569000000     2.828000000     7.513000000
H    -0.713000000     2.239000000     8.415000000
C     0.501000000     3.746000000     7.491000000
H     1.213000000     3.771000000     8.312000000
C     0.611000000     4.615000000     6.398000000
H     1.499000000     5.235000000     6.308000000
C    -0.298000000     4.573000000     5.384000000
O    -0.172000000     5.469000000     4.369000000
C     0.688000000     5.252000000     3.221000000
C     0.612000000     6.200000000     2.199000000
H    -0.061000000     7.054000000     2.209000000
C     1.439000000     6.038000000     1.082000000
O     1.500000000     6.934000000     0.053000000
C     1.438000000     6.633000000    -1.268000000
C     0.549000000     5.763000000    -1.739000000
H    -0.134000000     5.223000000    -1.089000000
C     2.359000000     7.284000000    -2.106000000
H     3.117000000     7.965000000    -1.728000000
C     2.312000000     7.140000000    -3.498000000
H     2.946000000     7.626000000    -4.235000000
C     1.301000000     6.237000000    -3.964000000
H     1.177000000     6.090000000    -5.034000000
C     0.460000000     5.574000000    -3.116000000
O    -0.538000000     4.817000000    -3.748000000
C    -0.402000000     3.495000000    -4.269000000
C    -1.515000000     2.944000000    -4.946000000
H    -2.406000000     3.549000000    -5.094000000
C    -1.559000000     1.553000000    -5.144000000
O    -2.602000000     0.975000000    -5.685000000
C    -2.755000000    -0.328000000    -6.028000000
C    -2.340000000    -0.639000000    -7.246000000
H    -1.810000000     0.109000000    -7.830000000
C    -2.526000000    -1.959000000    -7.667000000
H    -2.208000000    -2.319000000    -8.642000000
C    -3.321000000    -2.849000000    -6.989000000
H    -3.438000000    -3.892000000    -7.270000000
C    -3.873000000    -2.426000000    -5.800000000
C    -3.544000000    -1.180000000    -5.246000000
H    -3.919000000    -0.982000000    -4.245000000
O    -7.106000000     5.211000000    -1.988000000
H    -6.306000000     5.025000000    -2.479000000
H    -7.802000000     4.792000000    -2.495000000
O    -9.032000000     4.874000000     0.276000000
H    -8.161000000     5.182000000     0.027000000
H    -9.633000000     5.501000000    -0.125000000
O    -5.001000000     8.234000000    -0.626000000
H    -5.373000000     8.282000000    -1.507000000
H    -4.629000000     7.354000000    -0.572000000
O    -2.719000000     5.813000000     1.554000000
H    -3.224000000     5.363000000     2.232000000
H    -2.478000000     5.121000000     0.938000000
O    -6.928000000    -0.563000000    -2.362000000
H    -6.757000000     0.321000000    -2.037000000
H    -6.552000000    -1.140000000    -1.697000000
O    -3.575000000     5.858000000    -1.769000000
H    -3.336000000     5.057000000    -1.303000000
H    -4.092000000     5.556000000    -2.516000000
O    -6.039000000     4.592000000     0.887000000
H    -5.266000000     4.101000000     1.167000000
H    -6.040000000     4.512000000    -0.067000000
O    -5.288000000     5.264000000    -4.103000000
H    -5.340000000     4.352000000    -4.391000000
H    -4.931000000     5.733000000    -4.858000000
O    -2.277000000     8.222000000     0.545000000
H    -2.454000000     7.310000000     0.775000000
H    -2.141000000     8.208000000    -0.403000000
O    -4.092000000     4.115000000     3.300000000
H    -3.763000000     3.273000000     2.985000000
H    -5.039000000     3.993000000     3.365000000
O    -9.050000000     2.652000000     1.766000000
H    -8.927000000     3.516000000     1.372000000
H    -8.179000000     2.405000000     2.079000000
O    -6.098000000     1.626000000    -0.542000000
H    -5.563000000     1.740000000     0.243000000
H    -5.513000000     1.854000000    -1.265000000
O    -6.473000000     7.124000000     2.053000000
H    -5.883000000     7.292000000     1.319000000
H    -6.611000000     6.177000000     2.039000000
O    -2.584000000    -0.301000000    -2.112000000
H    -3.510000000    -0.450000000    -1.923000000
H    -2.245000000     0.124000000    -1.324000000
O    -4.648000000     1.988000000    -2.960000000
H    -3.794000000     1.768000000    -3.331000000
H    -5.202000000     2.161000000    -3.721000000
O    -4.324000000     7.305000000     4.386000000
H    -4.065000000     6.508000000     4.848000000
H    -4.266000000     7.073000000     3.459000000
O    -8.627000000     0.872000000    -0.228000000
H    -7.698000000     1.014000000    -0.408000000
H    -8.876000000     1.603000000     0.337000000
O    -6.388000000     1.861000000     2.734000000
H    -5.639000000     1.998000000     2.154000000
H    -6.414000000     0.914000000     2.872000000
O    -7.124000000     3.723000000     4.759000000
H    -8.056000000     3.574000000     4.599000000
H    -6.685000000     3.012000000     4.293000000
