201
-1228.56898
C    -4.797000000    -0.197000000    -2.667000000
H    -4.229000000     0.111000000    -3.541000000
C    -4.647000000     0.506000000    -1.519000000
C    -5.364000000     0.097000000    -0.412000000
H    -5.347000000     0.673000000     0.510000000
C    -3.693000000     1.700000000    -1.402000000
O    -3.521000000     2.252000000    -2.700000000
H    -2.691000000     1.451000000    -1.024000000
O    -4.274000000     2.672000000    -0.483000000
C    -3.414000000     3.320000000     0.346000000
C    -3.221000000     2.718000000     1.610000000
H    -3.837000000     1.884000000     1.938000000
C    -2.346000000     3.225000000     2.522000000
O    -2.124000000     2.519000000     3.634000000
C    -1.473000000     4.282000000     2.145000000
C    -0.304000000     4.697000000     2.988000000
H    -0.132000000     5.753000000     2.768000000
C     0.902000000     3.787000000     2.822000000
C     1.964000000     4.166000000     1.992000000
H     1.928000000     5.080000000     1.405000000
H    -0.490000000     4.638000000     4.062000000
C    -1.661000000     4.810000000     0.871000000
H    -0.921000000     5.559000000     0.596000000
C    -2.593000000     4.350000000    -0.064000000
C    -2.538000000     4.828000000    -1.490000000
H    -1.983000000     5.768000000    -1.532000000
H    -3.505000000     4.974000000    -1.976000000
C    -1.723000000     3.936000000    -2.393000000
C    -0.399000000     4.289000000    -2.624000000
H     0.049000000     5.227000000    -2.307000000
C    -2.252000000     2.777000000    -2.994000000
C    -1.475000000     1.979000000    -3.765000000
H    -1.900000000     1.054000000    -4.145000000
C    -0.151000000     2.383000000    -4.053000000
O     0.576000000     1.492000000    -4.772000000
C     1.445000000     0.595000000    -4.072000000
C     1.352000000    -0.842000000    -4.496000000
C     2.416000000    -1.784000000    -4.308000000
H     3.328000000    -1.280000000    -3.997000000
C     0.090000000    -1.431000000    -4.699000000
H    -0.782000000    -0.782000000    -4.661000000
O     2.727000000     1.100000000    -3.973000000
H     0.911000000     0.505000000    -3.115000000
C     0.386000000     3.556000000    -3.475000000
C     1.853000000     3.847000000    -3.601000000
H     1.904000000     4.937000000    -3.597000000
H     2.306000000     3.669000000    -4.579000000
C     2.709000000     3.039000000    -2.587000000
C     3.035000000     3.720000000    -1.388000000
H     2.785000000     4.769000000    -1.251000000
C     3.104000000     1.754000000    -2.830000000
C     3.923000000     1.108000000    -1.845000000
H     4.183000000     0.081000000    -2.088000000
C     4.274000000     1.711000000    -0.721000000
O     4.993000000     1.027000000     0.253000000
C     4.208000000     0.464000000     1.329000000
C     4.400000000    -1.016000000     1.591000000
C     4.921000000    -1.735000000     0.527000000
H     5.226000000    -1.189000000    -0.362000000
C     3.931000000    -1.728000000     2.721000000
H     3.549000000    -1.234000000     3.610000000
O     4.166000000     1.237000000     2.488000000
H     3.194000000     0.445000000     0.903000000
C     3.793000000     3.031000000    -0.466000000
C     4.177000000     3.710000000     0.877000000
H     4.238000000     4.797000000     0.794000000
H     5.153000000     3.456000000     1.295000000
C     3.096000000     3.402000000     1.969000000
C     3.241000000     2.224000000     2.655000000
C     2.210000000     1.821000000     3.494000000
H     2.266000000     0.886000000     4.046000000
C     1.045000000     2.645000000     3.640000000
O    -0.002000000     2.197000000     4.419000000
C    -1.064000000     1.603000000     3.764000000
H    -0.715000000     1.244000000     2.785000000
C    -1.463000000     0.372000000     4.591000000
C    -2.625000000    -0.320000000     4.310000000
H    -3.377000000     0.162000000     3.690000000
C    -0.489000000    -0.183000000     5.421000000
H     0.434000000     0.361000000     5.602000000
C    -0.834000000    -1.393000000     6.025000000
O     0.070000000    -1.913000000     6.892000000
C    -1.945000000    -2.178000000     5.586000000
H    -2.123000000    -3.110000000     6.116000000
C    -2.891000000    -1.633000000     4.741000000
O    -3.971000000    -2.321000000     4.291000000
C    -5.118000000    -1.841000000     3.765000000
C    -5.345000000    -2.006000000     2.380000000
H    -4.642000000    -2.464000000     1.689000000
C    -6.045000000    -1.197000000     4.622000000
H    -5.751000000    -1.037000000     5.656000000
C    -7.125000000    -0.603000000     4.017000000
H    -7.794000000    -0.018000000     4.642000000
C    -7.336000000    -0.705000000     2.666000000
H    -8.207000000    -0.308000000     2.151000000
C    -6.529000000    -1.489000000     1.853000000
O    -6.881000000    -1.548000000     0.550000000
C    -6.268000000    -0.975000000    -0.560000000
C    -6.352000000    -1.697000000    -1.722000000
H    -6.961000000    -2.595000000    -1.772000000
C    -5.585000000    -1.335000000    -2.745000000
O    -5.655000000    -2.026000000    -3.959000000
C    -4.622000000    -2.153000000    -4.839000000
C    -3.433000000    -2.802000000    -4.510000000
H    -3.301000000    -3.197000000    -3.506000000
C    -4.803000000    -1.890000000    -6.193000000
H    -5.824000000    -1.571000000    -6.385000000
C    -3.779000000    -1.945000000    -7.124000000
H    -3.913000000    -1.404000000    -8.057000000
C    -2.535000000    -2.463000000    -6.783000000
H    -1.662000000    -2.374000000    -7.424000000
C    -2.412000000    -2.933000000    -5.474000000
O    -1.244000000    -3.531000000    -5.153000000
C    -0.040000000    -2.765000000    -4.978000000
C     1.082000000    -3.582000000    -5.031000000
H     0.858000000    -4.618000000    -5.272000000
C     2.329000000    -3.109000000    -4.687000000
O     3.422000000    -4.019000000    -4.605000000
C     4.561000000    -3.730000000    -3.861000000
C     4.523000000    -3.885000000    -2.470000000
H     3.666000000    -4.322000000    -1.964000000
C     5.749000000    -3.320000000    -4.418000000
H     5.768000000    -3.212000000    -5.500000000
C     6.873000000    -3.091000000    -3.636000000
H     7.662000000    -2.525000000    -4.124000000
C     6.856000000    -3.327000000    -2.272000000
H     7.741000000    -3.156000000    -1.664000000
C     5.623000000    -3.718000000    -1.718000000
O     5.602000000    -3.963000000    -0.349000000
C     4.979000000    -3.160000000     0.598000000
C     4.466000000    -3.836000000     1.701000000
H     4.728000000    -4.888000000     1.779000000
C     3.890000000    -3.120000000     2.717000000
O     3.339000000    -3.840000000     3.857000000
C     3.024000000    -3.258000000     5.054000000
C     3.953000000    -3.271000000     6.059000000
H     4.983000000    -3.572000000     5.891000000
C     3.611000000    -2.837000000     7.343000000
H     4.328000000    -2.982000000     8.146000000
C     2.316000000    -2.431000000     7.683000000
H     2.052000000    -2.187000000     8.709000000
C     1.351000000    -2.334000000     6.621000000
C     1.695000000    -2.924000000     5.359000000
H     0.952000000    -3.093000000     4.584000000
O    -1.750000000   -10.738000000    -2.312000000
H    -2.605000000   -10.315000000    -2.395000000
H    -1.893000000   -11.631000000    -2.624000000
O    -3.105000000    -6.598000000    -3.463000000
H    -2.743000000    -6.380000000    -4.322000000
H    -2.520000000    -6.167000000    -2.840000000
O    -4.405000000    -8.968000000    -2.939000000
H    -4.017000000    -8.097000000    -3.023000000
H    -4.708000000    -9.182000000    -3.821000000
O    -0.155000000    -7.106000000    -5.693000000
H    -0.193000000    -8.033000000    -5.457000000
H    -1.037000000    -6.778000000    -5.520000000
O    -0.518000000    -9.484000000    -4.432000000
H     0.236000000   -10.074000000    -4.432000000
H    -1.030000000    -9.749000000    -3.668000000
O    -6.417000000    -5.300000000    -0.864000000
H    -5.796000000    -5.290000000    -0.135000000
H    -5.867000000    -5.276000000    -1.647000000
O    -0.513000000    -6.290000000     4.022000000
H    -1.031000000    -6.499000000     4.799000000
H    -0.944000000    -5.523000000     3.645000000
O    -3.438000000    -8.171000000     0.201000000
H    -2.803000000    -8.232000000    -0.513000000
H    -3.813000000    -7.294000000     0.113000000
O     2.796000000    -9.174000000    -1.245000000
H     2.246000000    -8.678000000    -1.851000000
H     2.198000000    -9.800000000    -0.836000000
O    -3.315000000    -5.344000000    -0.177000000
H    -2.870000000    -4.820000000     0.489000000
H    -2.656000000    -5.477000000    -0.857000000
O     1.248000000    -7.539000000    -3.145000000
H     0.958000000    -7.144000000    -3.968000000
H     1.126000000    -6.849000000    -2.493000000
O     1.622000000    -6.452000000    -7.691000000
H     1.036000000    -6.642000000    -6.958000000
H     2.242000000    -7.182000000    -7.696000000
O     4.146000000    -7.412000000     0.910000000
H     4.536000000    -7.347000000     0.038000000
H     3.291000000    -6.992000000     0.822000000
O     0.296000000    -8.359000000     0.972000000
H    -0.115000000    -8.380000000     0.108000000
H     0.840000000    -7.572000000     0.960000000
O    -2.663000000    -6.295000000    -6.394000000
H    -2.897000000    -6.807000000    -7.168000000
H    -3.477000000    -5.861000000    -6.138000000
O    -5.147000000    -4.938000000    -3.435000000
H    -5.095000000    -4.629000000    -4.339000000
H    -4.608000000    -5.729000000    -3.421000000
O    -1.806000000    -4.088000000     3.198000000
H    -2.743000000    -4.227000000     3.335000000
H    -1.727000000    -3.154000000     3.006000000
O    -1.177000000    -8.005000000    -1.465000000
H    -0.622000000    -8.316000000    -2.181000000
H    -1.162000000    -7.051000000    -1.548000000
O     1.865000000    -5.844000000     0.636000000
H     1.629000000    -5.065000000     1.140000000
H     1.610000000    -5.635000000    -0.262000000
