201
-1252.02518
C    -0.620000000     2.248000000     4.733000000
H     0.421000000     2.383000000     5.016000000
C    -1.013000000     0.983000000     4.347000000
C    -2.350000000     0.722000000     4.107000000
H    -2.634000000    -0.275000000     3.779000000
C    -0.030000000    -0.061000000     4.053000000
O     1.266000000     0.236000000     4.660000000
H     0.163000000    -0.030000000     2.971000000
O    -0.573000000    -1.299000000     4.479000000
C    -0.295000000    -2.389000000     3.702000000
C    -1.290000000    -3.054000000     3.043000000
H    -2.330000000    -2.739000000     3.093000000
C    -1.093000000    -4.083000000     2.163000000
O    -2.181000000    -4.426000000     1.453000000
C     0.199000000    -4.483000000     1.852000000
C     0.444000000    -5.538000000     0.755000000
H     1.400000000    -5.993000000     1.024000000
C     0.611000000    -4.787000000    -0.594000000
C     1.872000000    -4.458000000    -1.083000000
H     2.717000000    -4.786000000    -0.483000000
H    -0.363000000    -6.266000000     0.652000000
C     1.229000000    -3.934000000     2.559000000
H     2.190000000    -4.370000000     2.300000000
C     1.009000000    -2.871000000     3.436000000
C     2.204000000    -2.432000000     4.167000000
H     2.962000000    -3.213000000     4.244000000
H     1.883000000    -2.254000000     5.195000000
C     2.798000000    -1.135000000     3.564000000
C     3.815000000    -1.307000000     2.640000000
H     4.205000000    -2.289000000     2.388000000
C     2.272000000     0.074000000     3.841000000
C     2.822000000     1.199000000     3.200000000
H     2.435000000     2.186000000     3.439000000
C     3.801000000     0.989000000     2.235000000
O     4.245000000     2.073000000     1.544000000
C     3.687000000     2.233000000     0.250000000
C     3.217000000     3.694000000     0.088000000
C     2.819000000     4.053000000    -1.144000000
H     3.053000000     3.484000000    -2.040000000
C     2.774000000     4.356000000     1.225000000
H     2.839000000     3.956000000     2.234000000
O     4.633000000     1.899000000    -0.734000000
H     2.750000000     1.695000000     0.047000000
C     4.234000000    -0.243000000     1.888000000
C     5.410000000    -0.353000000     0.924000000
H     6.097000000    -1.135000000     1.251000000
H     6.087000000     0.497000000     0.812000000
C     4.811000000    -0.522000000    -0.489000000
C     4.536000000    -1.808000000    -0.924000000
H     4.817000000    -2.602000000    -0.237000000
C     4.444000000     0.608000000    -1.239000000
C     3.933000000     0.414000000    -2.527000000
H     3.806000000     1.273000000    -3.181000000
C     3.604000000    -0.817000000    -2.995000000
O     2.847000000    -0.836000000    -4.105000000
C     1.433000000    -1.124000000    -3.968000000
C     0.510000000    -0.317000000    -4.861000000
C     0.976000000     0.863000000    -5.450000000
H     2.006000000     1.185000000    -5.314000000
C    -0.822000000    -0.597000000    -4.932000000
H    -1.133000000    -1.481000000    -4.382000000
O     0.995000000    -2.508000000    -4.068000000
H     1.174000000    -0.818000000    -2.944000000
C     3.840000000    -1.911000000    -2.177000000
C     3.558000000    -3.375000000    -2.624000000
H     4.343000000    -4.029000000    -2.238000000
H     3.654000000    -3.393000000    -3.712000000
C     2.107000000    -3.740000000    -2.270000000
C     0.932000000    -3.340000000    -2.979000000
C    -0.352000000    -3.561000000    -2.448000000
H    -1.211000000    -3.122000000    -2.949000000
C    -0.480000000    -4.328000000    -1.303000000
O    -1.717000000    -4.656000000    -0.810000000
C    -2.325000000    -3.805000000     0.166000000
H    -1.749000000    -2.873000000     0.072000000
C    -3.786000000    -3.575000000    -0.087000000
C    -4.525000000    -3.139000000     0.929000000
H    -4.197000000    -3.281000000     1.956000000
C    -4.228000000    -3.362000000    -1.437000000
H    -3.533000000    -3.537000000    -2.255000000
C    -5.499000000    -2.854000000    -1.603000000
O    -5.858000000    -2.616000000    -2.950000000
C    -6.300000000    -2.436000000    -0.557000000
H    -7.255000000    -1.976000000    -0.797000000
C    -5.817000000    -2.657000000     0.725000000
O    -6.649000000    -2.236000000     1.741000000
C    -6.136000000    -1.684000000     2.901000000
C    -5.644000000    -0.381000000     2.778000000
H    -5.471000000     0.026000000     1.785000000
C    -6.397000000    -2.209000000     4.185000000
H    -6.953000000    -3.144000000     4.199000000
C    -5.979000000    -1.480000000     5.273000000
H    -6.118000000    -1.857000000     6.283000000
C    -5.310000000    -0.252000000     5.147000000
H    -4.953000000     0.313000000     6.004000000
C    -5.226000000     0.317000000     3.909000000
O    -4.632000000     1.550000000     3.770000000
C    -3.320000000     1.725000000     4.126000000
C    -2.939000000     2.990000000     4.423000000
H    -3.701000000     3.764000000     4.410000000
C    -1.591000000     3.287000000     4.787000000
O    -1.121000000     4.480000000     5.275000000
C     0.152000000     4.931000000     5.013000000
C     0.440000000     5.327000000     3.709000000
H    -0.350000000     5.167000000     2.980000000
C     1.124000000     5.001000000     5.987000000
H     0.993000000     4.751000000     7.037000000
C     2.433000000     5.477000000     5.669000000
H     3.171000000     5.658000000     6.445000000
C     2.699000000     5.896000000     4.325000000
H     3.660000000     6.347000000     4.091000000
C     1.650000000     5.897000000     3.422000000
O     1.734000000     6.356000000     2.114000000
C     2.207000000     5.614000000     1.069000000
C     1.946000000     6.071000000    -0.213000000
H     1.613000000     7.104000000    -0.285000000
C     2.237000000     5.287000000    -1.341000000
O     1.740000000     5.646000000    -2.588000000
C     2.096000000     5.050000000    -3.750000000
C     1.175000000     4.211000000    -4.404000000
H     0.218000000     3.936000000    -3.967000000
C     3.301000000     5.212000000    -4.378000000
H     4.023000000     5.906000000    -3.956000000
C     3.616000000     4.645000000    -5.622000000
H     4.527000000     4.834000000    -6.184000000
C     2.593000000     3.991000000    -6.288000000
H     2.797000000     3.732000000    -7.324000000
C     1.346000000     3.769000000    -5.725000000
O     0.429000000     3.030000000    -6.412000000
C     0.122000000     1.761000000    -6.054000000
C    -1.240000000     1.421000000    -6.133000000
H    -1.876000000     2.152000000    -6.626000000
C    -1.728000000     0.256000000    -5.556000000
O    -3.122000000    -0.074000000    -5.687000000
C    -3.622000000    -1.350000000    -5.431000000
C    -3.187000000    -2.472000000    -6.157000000
H    -2.491000000    -2.407000000    -6.990000000
C    -3.791000000    -3.719000000    -5.903000000
H    -3.436000000    -4.582000000    -6.461000000
C    -4.764000000    -3.813000000    -4.849000000
H    -5.279000000    -4.733000000    -4.582000000
C    -5.081000000    -2.656000000    -4.067000000
C    -4.512000000    -1.427000000    -4.373000000
H    -4.734000000    -0.491000000    -3.867000000
O    -5.272000000     2.069000000    -4.662000000
H    -4.853000000     2.926000000    -4.746000000
H    -5.462000000     1.986000000    -3.728000000
O    -9.511000000    -1.630000000     1.540000000
H    -8.647000000    -1.402000000     1.198000000
H    -9.415000000    -2.529000000     1.855000000
O    -7.587000000     2.855000000     2.330000000
H    -8.080000000     3.543000000     1.884000000
H    -6.684000000     2.980000000     2.039000000
O    -8.945000000     0.482000000     3.082000000
H    -8.452000000     1.186000000     2.661000000
H    -8.900000000    -0.246000000     2.462000000
O    -5.343000000     3.664000000     0.910000000
H    -4.416000000     3.841000000     1.070000000
H    -5.345000000     2.882000000     0.358000000
O    -7.614000000     0.337000000     0.486000000
H    -6.708000000     0.470000000     0.206000000
H    -8.055000000     1.158000000     0.266000000
O    -9.183000000     0.271000000    -4.845000000
H    -8.555000000    -0.065000000    -4.205000000
H    -8.641000000     0.607000000    -5.559000000
O    -6.938000000     5.822000000     2.744000000
H    -6.659000000     5.544000000     1.871000000
H    -6.769000000     5.063000000     3.302000000
O    -6.191000000     5.609000000    -0.631000000
H    -6.929000000     5.490000000    -1.228000000
H    -5.967000000     4.723000000    -0.347000000
O    -7.585000000    -0.202000000    -2.525000000
H    -6.664000000    -0.463000000    -2.535000000
H    -7.613000000     0.555000000    -1.939000000
O    -6.944000000     5.642000000    -3.639000000
H    -7.021000000     6.593000000    -3.555000000
H    -7.766000000     5.370000000    -4.047000000
O    -9.670000000    -1.968000000    -2.670000000
H    -8.945000000    -1.353000000    -2.560000000
H   -10.432000000    -1.505000000    -2.321000000
O    -5.325000000     7.473000000    -2.441000000
H    -5.463000000     6.550000000    -2.227000000
H    -5.694000000     7.949000000    -1.697000000
O    -9.039000000     2.489000000    -0.557000000
H    -8.399000000     2.818000000    -1.188000000
H    -9.793000000     2.236000000    -1.089000000
O    -7.262000000     1.248000000    -6.381000000
H    -6.636000000     1.522000000    -5.712000000
H    -6.908000000     0.424000000    -6.717000000
O    -2.937000000     4.703000000    -2.847000000
H    -3.269000000     3.808000000    -2.781000000
H    -2.420000000     4.826000000    -2.051000000
O    -4.408000000     4.518000000    -5.256000000
H    -5.079000000     5.192000000    -5.150000000
H    -3.787000000     4.685000000    -4.547000000
O    -6.832000000     3.232000000    -1.968000000
H    -6.014000000     2.738000000    -2.019000000
H    -6.818000000     3.799000000    -2.739000000
O    -1.436000000     5.366000000    -0.653000000
H    -0.504000000     5.252000000    -0.468000000
H    -1.700000000     6.108000000    -0.110000000
