201
-1251.21029
C    -0.650000000     1.316000000     4.853000000
H     0.336000000     1.564000000     5.238000000
C    -0.895000000     0.085000000     4.266000000
C    -2.249000000    -0.155000000     3.935000000
H    -2.538000000    -1.117000000     3.520000000
C     0.215000000    -0.937000000     3.938000000
O     1.459000000    -0.681000000     4.634000000
H     0.364000000    -0.735000000     2.867000000
O    -0.197000000    -2.303000000     4.180000000
C     0.107000000    -3.332000000     3.290000000
C    -0.974000000    -3.729000000     2.493000000
H    -1.950000000    -3.345000000     2.781000000
C    -0.742000000    -4.437000000     1.311000000
O    -1.776000000    -4.656000000     0.468000000
C     0.568000000    -4.752000000     1.015000000
C     0.818000000    -5.550000000    -0.284000000
H     1.675000000    -6.227000000    -0.257000000
C     0.998000000    -4.691000000    -1.468000000
C     2.244000000    -4.218000000    -1.867000000
H     3.154000000    -4.435000000    -1.313000000
H    -0.036000000    -6.220000000    -0.409000000
C     1.614000000    -4.489000000     1.840000000
H     2.606000000    -4.713000000     1.457000000
C     1.452000000    -3.628000000     2.930000000
C     2.629000000    -3.098000000     3.675000000
H     3.474000000    -3.756000000     3.460000000
H     2.398000000    -3.130000000     4.742000000
C     3.123000000    -1.674000000     3.326000000
C     4.140000000    -1.635000000     2.389000000
H     4.403000000    -2.571000000     1.902000000
C     2.556000000    -0.533000000     3.891000000
C     2.933000000     0.690000000     3.431000000
H     2.503000000     1.613000000     3.811000000
C     3.944000000     0.779000000     2.477000000
O     4.138000000     2.026000000     1.913000000
C     3.494000000     2.275000000     0.647000000
C     2.913000000     3.669000000     0.710000000
C     2.395000000     4.219000000    -0.481000000
H     2.463000000     3.694000000    -1.431000000
C     2.721000000     4.318000000     1.934000000
H     3.097000000     3.920000000     2.873000000
O     4.489000000     2.140000000    -0.418000000
H     2.655000000     1.590000000     0.458000000
C     4.555000000    -0.375000000     1.914000000
C     5.488000000    -0.276000000     0.724000000
H     6.187000000    -1.115000000     0.736000000
H     6.077000000     0.643000000     0.715000000
C     4.798000000    -0.275000000    -0.624000000
C     4.625000000    -1.447000000    -1.323000000
H     5.060000000    -2.365000000    -0.934000000
C     4.335000000     0.934000000    -1.128000000
C     3.756000000     0.978000000    -2.350000000
H     3.475000000     1.943000000    -2.765000000
C     3.506000000    -0.225000000    -3.046000000
O     2.632000000    -0.123000000    -4.108000000
C     1.228000000    -0.505000000    -3.996000000
C     0.328000000     0.586000000    -4.678000000
C     0.847000000     1.813000000    -5.166000000
H     1.903000000     2.070000000    -5.178000000
C    -1.051000000     0.388000000    -4.658000000
H    -1.494000000    -0.496000000    -4.207000000
O     1.038000000    -1.824000000    -4.522000000
H     0.734000000    -0.444000000    -3.015000000
C     3.913000000    -1.419000000    -2.563000000
C     3.683000000    -2.753000000    -3.277000000
H     4.450000000    -3.448000000    -2.929000000
H     3.769000000    -2.729000000    -4.365000000
C     2.306000000    -3.272000000    -2.917000000
C     1.124000000    -2.900000000    -3.601000000
C    -0.095000000    -3.429000000    -3.250000000
H    -0.987000000    -3.097000000    -3.773000000
C    -0.178000000    -4.242000000    -2.139000000
O    -1.425000000    -4.529000000    -1.797000000
C    -1.940000000    -3.855000000    -0.653000000
H    -1.370000000    -2.915000000    -0.595000000
C    -3.395000000    -3.457000000    -0.802000000
C    -4.205000000    -3.477000000     0.315000000
H    -3.822000000    -3.482000000     1.332000000
C    -4.000000000    -3.059000000    -2.047000000
H    -3.362000000    -3.128000000    -2.925000000
C    -5.380000000    -2.737000000    -2.167000000
O    -5.941000000    -2.257000000    -3.349000000
C    -6.155000000    -2.742000000    -0.979000000
H    -7.206000000    -2.466000000    -1.002000000
C    -5.601000000    -3.168000000     0.216000000
O    -6.329000000    -3.192000000     1.385000000
C    -6.084000000    -2.495000000     2.553000000
C    -5.405000000    -1.285000000     2.576000000
H    -5.043000000    -0.809000000     1.668000000
C    -6.572000000    -3.054000000     3.769000000
H    -7.144000000    -3.978000000     3.764000000
C    -6.419000000    -2.420000000     4.992000000
H    -6.844000000    -2.827000000     5.906000000
C    -5.592000000    -1.233000000     5.020000000
H    -5.386000000    -0.667000000     5.924000000
C    -5.232000000    -0.640000000     3.761000000
O    -4.638000000     0.566000000     3.740000000
C    -3.323000000     0.744000000     4.103000000
C    -3.077000000     2.032000000     4.612000000
H    -3.881000000     2.763000000     4.640000000
C    -1.731000000     2.262000000     5.005000000
O    -1.456000000     3.477000000     5.643000000
C    -0.248000000     4.053000000     5.557000000
C     0.099000000     4.737000000     4.400000000
H    -0.534000000     4.652000000     3.520000000
C     0.597000000     4.058000000     6.688000000
H     0.295000000     3.688000000     7.664000000
C     1.876000000     4.611000000     6.554000000
H     2.579000000     4.530000000     7.379000000
C     2.208000000     5.280000000     5.408000000
H     3.203000000     5.713000000     5.346000000
C     1.335000000     5.371000000     4.295000000
O     1.710000000     6.129000000     3.169000000
C     1.986000000     5.531000000     1.942000000
C     1.540000000     6.139000000     0.820000000
H     1.104000000     7.134000000     0.861000000
C     1.743000000     5.488000000    -0.416000000
O     1.359000000     6.197000000    -1.478000000
C     1.754000000     5.888000000    -2.798000000
C     0.858000000     5.195000000    -3.649000000
H    -0.198000000     5.224000000    -3.393000000
C     3.127000000     5.871000000    -3.005000000
H     3.803000000     6.151000000    -2.201000000
C     3.627000000     5.296000000    -4.263000000
H     4.659000000     5.021000000    -4.469000000
C     2.779000000     4.732000000    -5.173000000
H     3.260000000     4.413000000    -6.094000000
C     1.399000000     4.690000000    -4.849000000
O     0.483000000     4.084000000    -5.705000000
C     0.005000000     2.846000000    -5.500000000
C    -1.294000000     2.571000000    -5.700000000
H    -1.950000000     3.391000000    -5.981000000
C    -1.847000000     1.358000000    -5.268000000
O    -3.216000000     1.225000000    -5.258000000
C    -3.809000000    -0.027000000    -5.328000000
C    -3.365000000    -0.903000000    -6.322000000
H    -2.543000000    -0.728000000    -7.012000000
C    -3.912000000    -2.226000000    -6.378000000
H    -3.550000000    -2.936000000    -7.118000000
C    -4.800000000    -2.626000000    -5.380000000
H    -5.158000000    -3.651000000    -5.330000000
C    -5.206000000    -1.720000000    -4.403000000
C    -4.750000000    -0.409000000    -4.413000000
H    -5.140000000     0.180000000    -3.587000000
O    -5.241000000     3.073000000    -4.450000000
H    -4.677000000     2.857000000    -5.192000000
H    -4.666000000     3.017000000    -3.687000000
O    -8.535000000    -0.628000000     0.906000000
H    -8.722000000    -1.565000000     0.970000000
H    -9.312000000    -0.257000000     0.487000000
O    -7.859000000     7.124000000    -3.632000000
H    -7.621000000     6.727000000    -2.794000000
H    -7.976000000     6.382000000    -4.225000000
O    -5.345000000     2.961000000     2.245000000
H    -4.822000000     2.191000000     2.470000000
H    -5.357000000     2.972000000     1.288000000
O    -8.065000000     1.555000000     2.499000000
H    -7.948000000     0.722000000     2.041000000
H    -7.229000000     2.008000000     2.389000000
O    -7.516000000     1.318000000    -3.888000000
H    -7.344000000     0.954000000    -3.020000000
H    -6.960000000     2.095000000    -3.936000000
O    -6.689000000     5.176000000     3.180000000
H    -6.708000000     4.979000000     4.116000000
H    -6.262000000     4.417000000     2.783000000
O    -3.885000000     6.294000000     2.585000000
H    -4.765000000     6.038000000     2.863000000
H    -3.764000000     5.859000000     1.741000000
O    -7.921000000     2.951000000    -0.684000000
H    -7.034000000     2.634000000    -0.518000000
H    -8.412000000     2.170000000    -0.939000000
O    -6.451000000     0.313000000    -1.389000000
H    -5.818000000     0.879000000    -0.947000000
H    -7.026000000     0.004000000    -0.690000000
O    -2.170000000     6.985000000    -1.690000000
H    -2.357000000     6.386000000    -0.967000000
H    -3.031000000     7.216000000    -2.038000000
O    -4.792000000     2.151000000    -7.434000000
H    -4.897000000     1.547000000    -8.169000000
H    -3.993000000     1.859000000    -6.996000000
O    -6.823000000     5.983000000    -1.109000000
H    -7.080000000     5.061000000    -1.139000000
H    -7.534000000     6.414000000    -0.635000000
O    -9.242000000     4.636000000     0.994000000
H    -8.690000000     3.870000000     0.844000000
H    -9.630000000     4.824000000     0.139000000
O    -9.768000000     3.235000000    -3.497000000
H   -10.543000000     2.782000000    -3.830000000
H    -9.103000000     2.550000000    -3.423000000
O    -2.988000000     5.450000000    -4.148000000
H    -3.213000000     4.892000000    -3.404000000
H    -3.619000000     6.169000000    -4.108000000
O    -2.731000000     5.782000000    -6.766000000
H    -3.655000000     5.551000000    -6.860000000
H    -2.534000000     5.612000000    -5.845000000
O    -7.680000000     5.129000000    -5.414000000
H    -6.936000000     5.465000000    -5.915000000
H    -7.450000000     4.219000000    -5.225000000
O    -4.320000000     5.403000000    -0.509000000
H    -5.202000000     5.767000000    -0.582000000
H    -4.299000000     4.693000000    -1.151000000
