201
-1256.17123
C    -0.966000000     2.149000000     3.981000000
H     0.098000000     2.366000000     3.952000000
C    -1.391000000     0.812000000     4.030000000
C    -2.748000000     0.552000000     3.953000000
H    -3.125000000    -0.467000000     3.912000000
C    -0.340000000    -0.323000000     4.046000000
O     0.891000000     0.085000000     4.829000000
H     0.015000000    -0.552000000     3.030000000
O    -0.837000000    -1.588000000     4.650000000
C    -0.622000000    -2.653000000     3.868000000
C    -1.653000000    -3.113000000     3.054000000
H    -2.648000000    -2.753000000     3.303000000
C    -1.357000000    -3.920000000     1.973000000
O    -2.453000000    -4.119000000     1.135000000
C    -0.112000000    -4.473000000     1.728000000
C     0.255000000    -5.446000000     0.634000000
H     1.071000000    -6.122000000     0.896000000
C     0.534000000    -4.804000000    -0.725000000
C     1.839000000    -4.523000000    -1.110000000
H     2.708000000    -4.774000000    -0.508000000
H    -0.554000000    -6.168000000     0.504000000
C     0.854000000    -4.165000000     2.744000000
H     1.784000000    -4.712000000     2.609000000
C     0.689000000    -3.179000000     3.687000000
C     1.848000000    -2.637000000     4.503000000
H     2.553000000    -3.452000000     4.678000000
H     1.503000000    -2.362000000     5.502000000
C     2.600000000    -1.412000000     3.985000000
C     3.684000000    -1.595000000     3.122000000
H     4.052000000    -2.613000000     3.023000000
C     2.140000000    -0.081000000     4.222000000
C     2.843000000     1.023000000     3.719000000
H     2.480000000     2.036000000     3.878000000
C     3.944000000     0.788000000     2.896000000
O     4.349000000     1.893000000     2.198000000
C     3.771000000     2.043000000     0.798000000
C     3.503000000     3.455000000     0.555000000
C     3.512000000     4.014000000    -0.739000000
H     3.640000000     3.237000000    -1.487000000
C     3.297000000     4.332000000     1.576000000
H     3.368000000     4.023000000     2.616000000
O     4.795000000     1.546000000    -0.108000000
H     2.819000000     1.494000000     0.760000000
C     4.268000000    -0.541000000     2.497000000
C     5.350000000    -0.773000000     1.460000000
H     5.796000000    -1.714000000     1.789000000
H     6.066000000     0.047000000     1.539000000
C     4.770000000    -0.861000000     0.071000000
C     4.440000000    -2.088000000    -0.540000000
H     4.664000000    -3.006000000    -0.003000000
C     4.577000000     0.330000000    -0.646000000
C     3.955000000     0.258000000    -1.898000000
H     3.703000000     1.138000000    -2.484000000
C     3.613000000    -0.894000000    -2.480000000
O     2.974000000    -0.850000000    -3.671000000
C     1.530000000    -1.060000000    -3.669000000
C     0.763000000    -0.091000000    -4.537000000
C     1.229000000     1.136000000    -4.923000000
H     2.303000000     1.245000000    -4.793000000
C    -0.588000000    -0.311000000    -4.747000000
H    -0.978000000    -1.210000000    -4.277000000
O     1.241000000    -2.401000000    -4.095000000
H     1.154000000    -0.953000000    -2.641000000
C     3.870000000    -2.145000000    -1.861000000
C     3.570000000    -3.505000000    -2.562000000
H     4.265000000    -4.283000000    -2.239000000
H     3.693000000    -3.424000000    -3.644000000
C     2.104000000    -3.961000000    -2.370000000
C     1.049000000    -3.364000000    -3.108000000
C    -0.248000000    -3.613000000    -2.708000000
H    -1.069000000    -3.101000000    -3.203000000
C    -0.536000000    -4.304000000    -1.502000000
O    -1.865000000    -4.452000000    -1.226000000
C    -2.375000000    -3.605000000    -0.253000000
H    -1.809000000    -2.669000000    -0.135000000
C    -3.759000000    -3.275000000    -0.693000000
C    -4.698000000    -2.778000000     0.246000000
H    -4.421000000    -2.771000000     1.298000000
C    -4.166000000    -3.203000000    -2.065000000
H    -3.460000000    -3.569000000    -2.806000000
C    -5.431000000    -2.846000000    -2.434000000
O    -5.730000000    -2.836000000    -3.737000000
C    -6.369000000    -2.494000000    -1.443000000
H    -7.424000000    -2.266000000    -1.577000000
C    -5.964000000    -2.469000000    -0.126000000
O    -6.880000000    -2.232000000     0.915000000
C    -6.464000000    -1.798000000     2.162000000
C    -5.825000000    -0.563000000     2.344000000
H    -5.576000000     0.044000000     1.477000000
C    -6.729000000    -2.569000000     3.304000000
H    -7.102000000    -3.585000000     3.205000000
C    -6.439000000    -2.016000000     4.520000000
H    -6.674000000    -2.602000000     5.405000000
C    -5.900000000    -0.740000000     4.705000000
H    -5.600000000    -0.287000000     5.647000000
C    -5.577000000    -0.005000000     3.573000000
O    -5.027000000     1.264000000     3.765000000
C    -3.668000000     1.576000000     3.919000000
C    -3.252000000     2.884000000     4.016000000
H    -3.992000000     3.659000000     4.195000000
C    -1.892000000     3.238000000     3.988000000
O    -1.427000000     4.566000000     4.049000000
C    -0.133000000     4.913000000     4.314000000
C     0.673000000     5.321000000     3.243000000
H     0.297000000     5.232000000     2.227000000
C     0.260000000     5.060000000     5.671000000
H    -0.371000000     4.696000000     6.477000000
C     1.503000000     5.667000000     5.990000000
H     1.811000000     5.882000000     7.009000000
C     2.350000000     6.173000000     4.956000000
H     3.215000000     6.772000000     5.228000000
C     1.927000000     5.947000000     3.546000000
O     2.641000000     6.433000000     2.436000000
C     3.016000000     5.677000000     1.355000000
C     3.101000000     6.253000000     0.089000000
H     2.919000000     7.312000000    -0.076000000
C     3.249000000     5.381000000    -0.981000000
O     2.996000000     5.841000000    -2.227000000
C     3.048000000     5.056000000    -3.324000000
C     1.924000000     4.766000000    -4.004000000
H     0.965000000     5.152000000    -3.668000000
C     4.324000000     4.595000000    -3.861000000
H     5.233000000     4.878000000    -3.336000000
C     4.401000000     3.801000000    -5.043000000
H     5.372000000     3.496000000    -5.425000000
C     3.226000000     3.478000000    -5.686000000
H     3.294000000     2.923000000    -6.618000000
C     2.003000000     3.893000000    -5.127000000
O     0.895000000     3.377000000    -5.712000000
C     0.439000000     2.106000000    -5.499000000
C    -0.889000000     1.963000000    -5.713000000
H    -1.390000000     2.843000000    -6.108000000
C    -1.371000000     0.676000000    -5.356000000
O    -2.732000000     0.545000000    -5.408000000
C    -3.429000000    -0.563000000    -5.519000000
C    -3.564000000    -1.078000000    -6.810000000
H    -3.056000000    -0.521000000    -7.593000000
C    -4.382000000    -2.232000000    -7.076000000
H    -4.419000000    -2.559000000    -8.112000000
C    -5.119000000    -2.743000000    -6.035000000
H    -5.743000000    -3.597000000    -6.288000000
C    -4.986000000    -2.207000000    -4.737000000
C    -4.144000000    -1.096000000    -4.484000000
H    -3.998000000    -0.609000000    -3.524000000
O    -5.070000000     2.097000000    -4.985000000
H    -4.358000000     1.575000000    -5.354000000
H    -4.796000000     2.274000000    -4.085000000
O    -8.676000000    -0.336000000    -0.030000000
H    -8.103000000    -0.533000000     0.711000000
H    -9.532000000    -0.676000000     0.233000000
O    -6.549000000     6.791000000    -3.644000000
H    -7.450000000     6.900000000    -3.948000000
H    -6.369000000     5.858000000    -3.758000000
O    -6.241000000     2.609000000     1.352000000
H    -5.587000000     2.242000000     1.946000000
H    -5.949000000     2.343000000     0.480000000
O    -4.814000000     7.031000000    -6.167000000
H    -5.620000000     7.075000000    -5.653000000
H    -4.290000000     6.358000000    -5.733000000
O    -8.741000000     1.642000000     2.356000000
H    -8.977000000     2.000000000     1.500000000
H    -7.887000000     2.029000000     2.550000000
O    -5.226000000     6.006000000     2.661000000
H    -5.940000000     6.006000000     3.298000000
H    -5.663000000     5.971000000     1.810000000
O    -7.562000000     0.847000000    -4.707000000
H    -7.650000000     0.815000000    -3.754000000
H    -6.719000000     1.275000000    -4.855000000
O    -7.453000000     4.924000000     1.295000000
H    -8.052000000     4.955000000     2.041000000
H    -7.117000000     4.028000000     1.294000000
O    -2.882000000     6.033000000     1.323000000
H    -3.182000000     5.558000000     0.548000000
H    -3.443000000     5.715000000     2.030000000
O    -8.326000000     4.191000000    -2.783000000
H    -7.779000000     3.427000000    -2.963000000
H    -8.821000000     4.328000000    -3.591000000
O    -7.612000000     1.216000000    -2.068000000
H    -6.773000000     1.463000000    -1.678000000
H    -8.031000000     0.665000000    -1.407000000
O    -2.987000000     7.085000000    -2.282000000
H    -3.563000000     6.635000000    -1.664000000
H    -2.964000000     7.990000000    -1.972000000
O    -8.337000000     6.151000000    -0.897000000
H    -8.286000000     5.521000000    -1.616000000
H    -8.101000000     5.646000000    -0.119000000
O   -10.523000000     2.892000000    -1.713000000
H   -10.463000000     2.393000000    -2.527000000
H    -9.756000000     3.465000000    -1.726000000
O    -3.313000000     5.100000000    -4.382000000
H    -3.434000000     4.280000000    -3.902000000
H    -3.185000000     5.759000000    -3.700000000
O    -2.284000000     5.312000000    -6.939000000
H    -1.949000000     6.201000000    -7.058000000
H    -2.702000000     5.327000000    -6.079000000
O    -6.704000000     4.449000000    -5.602000000
H    -7.046000000     3.992000000    -6.369000000
H    -6.218000000     3.779000000    -5.120000000
O    -4.597000000     5.397000000    -0.985000000
H    -5.546000000     5.281000000    -0.947000000
H    -4.262000000     4.543000000    -1.261000000
