201
-1240.29517
C     0.107000000     2.938000000     4.211000000
H     1.100000000     3.266000000     3.917000000
C    -0.258000000     1.578000000     4.443000000
C    -1.634000000     1.355000000     4.640000000
H    -2.022000000     0.339000000     4.660000000
C     0.776000000     0.470000000     4.356000000
O     2.144000000     0.958000000     4.572000000
H     0.678000000     0.139000000     3.311000000
O     0.350000000    -0.725000000     5.117000000
C     0.331000000    -1.892000000     4.366000000
C    -0.862000000    -2.388000000     3.953000000
H    -1.751000000    -1.935000000     4.385000000
C    -0.869000000    -3.439000000     2.975000000
O    -2.046000000    -3.904000000     2.438000000
C     0.332000000    -4.083000000     2.618000000
C     0.278000000    -5.353000000     1.741000000
H     1.168000000    -5.932000000     1.997000000
C     0.230000000    -4.981000000     0.217000000
C     1.445000000    -4.699000000    -0.359000000
H     2.383000000    -4.644000000     0.186000000
H    -0.623000000    -5.919000000     1.988000000
C     1.538000000    -3.566000000     3.177000000
H     2.439000000    -4.132000000     2.956000000
C     1.595000000    -2.410000000     3.892000000
C     2.900000000    -1.859000000     4.421000000
H     3.567000000    -2.718000000     4.324000000
H     2.862000000    -1.608000000     5.483000000
C     3.448000000    -0.768000000     3.478000000
C     4.284000000    -1.156000000     2.453000000
H     4.600000000    -2.189000000     2.335000000
C     3.007000000     0.557000000     3.626000000
C     3.472000000     1.555000000     2.744000000
H     3.183000000     2.592000000     2.889000000
C     4.155000000     1.100000000     1.626000000
O     4.396000000     2.080000000     0.662000000
C     3.713000000     2.011000000    -0.609000000
C     3.273000000     3.406000000    -1.074000000
C     3.030000000     3.631000000    -2.452000000
H     3.112000000     2.831000000    -3.183000000
C     3.027000000     4.420000000    -0.146000000
H     3.149000000     4.185000000     0.908000000
O     4.575000000     1.388000000    -1.592000000
H     2.815000000     1.401000000    -0.432000000
C     4.596000000    -0.240000000     1.500000000
C     5.461000000    -0.650000000     0.314000000
H     6.204000000    -1.446000000     0.397000000
H     6.220000000     0.121000000     0.163000000
C     4.576000000    -0.926000000    -0.907000000
C     4.214000000    -2.258000000    -1.142000000
H     4.455000000    -2.998000000    -0.384000000
C     4.346000000     0.022000000    -1.889000000
C     3.474000000    -0.222000000    -2.957000000
H     3.348000000     0.551000000    -3.711000000
C     2.963000000    -1.544000000    -3.058000000
O     1.981000000    -1.739000000    -4.015000000
C     0.674000000    -1.845000000    -3.615000000
C    -0.275000000    -0.922000000    -4.426000000
C     0.302000000     0.105000000    -5.240000000
H     1.362000000     0.320000000    -5.350000000
C    -1.653000000    -1.010000000    -4.289000000
H    -1.962000000    -1.645000000    -3.463000000
O     0.320000000    -3.270000000    -3.579000000
H     0.601000000    -1.550000000    -2.557000000
C     3.350000000    -2.549000000    -2.177000000
C     2.853000000    -3.985000000    -2.329000000
H     3.559000000    -4.736000000    -1.969000000
H     2.815000000    -4.182000000    -3.403000000
C     1.582000000    -4.222000000    -1.658000000
C     0.345000000    -3.949000000    -2.348000000
C    -0.903000000    -4.081000000    -1.711000000
H    -1.818000000    -3.915000000    -2.273000000
C    -0.933000000    -4.721000000    -0.462000000
O    -2.078000000    -4.826000000     0.201000000
C    -2.376000000    -3.681000000     1.036000000
H    -1.797000000    -2.867000000     0.575000000
C    -3.820000000    -3.260000000     0.871000000
C    -4.460000000    -2.578000000     1.875000000
H    -3.929000000    -2.501000000     2.820000000
C    -4.509000000    -3.317000000    -0.349000000
H    -3.903000000    -3.714000000    -1.160000000
C    -5.792000000    -2.701000000    -0.524000000
O    -6.433000000    -2.640000000    -1.706000000
C    -6.416000000    -2.147000000     0.554000000
H    -7.430000000    -1.755000000     0.547000000
C    -5.722000000    -2.060000000     1.766000000
O    -6.390000000    -1.706000000     2.978000000
C    -5.650000000    -1.127000000     3.997000000
C    -5.089000000     0.192000000     3.793000000
H    -5.175000000     0.829000000     2.917000000
C    -5.483000000    -1.869000000     5.152000000
H    -5.894000000    -2.871000000     5.247000000
C    -4.813000000    -1.317000000     6.200000000
H    -4.708000000    -1.788000000     7.174000000
C    -4.351000000     0.023000000     6.133000000
H    -3.991000000     0.533000000     7.023000000
C    -4.470000000     0.762000000     4.955000000
O    -3.943000000     2.005000000     4.840000000
C    -2.643000000     2.306000000     4.617000000
C    -2.217000000     3.632000000     4.436000000
H    -3.004000000     4.381000000     4.460000000
C    -0.906000000     3.903000000     4.168000000
O    -0.617000000     5.210000000     3.945000000
C     0.654000000     5.687000000     3.581000000
C     0.884000000     5.778000000     2.226000000
H     0.103000000     5.422000000     1.559000000
C     1.580000000     6.199000000     4.404000000
H     1.385000000     6.147000000     5.472000000
C     2.748000000     6.816000000     3.961000000
H     3.521000000     7.136000000     4.655000000
C     2.949000000     6.961000000     2.542000000
H     3.717000000     7.600000000     2.114000000
C     2.014000000     6.389000000     1.681000000
O     2.156000000     6.632000000     0.317000000
C     2.650000000     5.662000000    -0.645000000
C     2.476000000     5.849000000    -2.035000000
H     2.303000000     6.884000000    -2.317000000
C     2.651000000     4.868000000    -2.970000000
O     2.572000000     5.188000000    -4.324000000
C     2.489000000     4.196000000    -5.244000000
C     1.232000000     3.576000000    -5.378000000
H     0.368000000     3.904000000    -4.806000000
C     3.506000000     4.044000000    -6.206000000
H     4.408000000     4.626000000    -6.037000000
C     3.304000000     3.076000000    -7.188000000
H     4.125000000     2.909000000    -7.880000000
C     2.088000000     2.425000000    -7.365000000
H     1.939000000     1.701000000    -8.162000000
C     1.044000000     2.735000000    -6.413000000
O    -0.150000000     2.061000000    -6.577000000
C    -0.577000000     1.009000000    -5.856000000
C    -1.953000000     0.789000000    -5.809000000
H    -2.597000000     1.413000000    -6.423000000
C    -2.526000000    -0.194000000    -5.009000000
O    -3.923000000    -0.290000000    -5.008000000
C    -4.637000000    -1.420000000    -4.641000000
C    -5.016000000    -2.366000000    -5.574000000
H    -4.712000000    -2.201000000    -6.605000000
C    -5.779000000    -3.476000000    -5.210000000
H    -5.938000000    -4.323000000    -5.873000000
C    -6.159000000    -3.573000000    -3.881000000
H    -6.629000000    -4.453000000    -3.448000000
C    -5.809000000    -2.619000000    -2.945000000
C    -4.972000000    -1.554000000    -3.310000000
H    -4.910000000    -0.702000000    -2.638000000
O    -4.734000000     6.535000000    -6.148000000
H    -4.163000000     5.780000000    -6.009000000
H    -4.368000000     7.218000000    -5.585000000
O    -6.670000000     0.757000000     0.106000000
H    -6.094000000     1.344000000    -0.383000000
H    -7.093000000     0.222000000    -0.566000000
O    -1.208000000     2.974000000     0.913000000
H    -1.300000000     2.256000000     0.286000000
H    -0.910000000     2.552000000     1.718000000
O    -8.267000000    -0.033000000    -1.973000000
H    -8.898000000    -0.468000000    -1.400000000
H    -8.093000000    -0.670000000    -2.666000000
O    -6.089000000     0.920000000    -6.914000000
H    -5.479000000     0.227000000    -7.167000000
H    -6.883000000     0.455000000    -6.648000000
O    -5.520000000     3.655000000     0.781000000
H    -5.316000000     2.936000000     0.184000000
H    -6.129000000     4.208000000     0.291000000
O    -0.889000000     6.980000000    -1.561000000
H    -1.243000000     6.331000000    -2.169000000
H    -1.473000000     6.941000000    -0.803000000
O    -8.642000000     4.682000000    -4.074000000
H    -8.337000000     5.555000000    -4.320000000
H    -7.951000000     4.093000000    -4.376000000
O    -5.796000000     2.702000000    -5.077000000
H    -6.136000000     2.371000000    -5.908000000
H    -5.079000000     2.107000000    -4.857000000
O    -3.765000000     7.226000000    -0.166000000
H    -3.674000000     6.299000000    -0.384000000
H    -4.306000000     7.236000000     0.624000000
O    -6.829000000     2.832000000    -2.430000000
H    -7.247000000     2.247000000    -3.062000000
H    -5.999000000     2.405000000    -2.219000000
O    -7.504000000     1.711000000     2.820000000
H    -7.341000000     1.145000000     2.066000000
H    -7.987000000     2.455000000     2.462000000
O    -3.123000000     4.228000000    -7.823000000
H    -3.068000000     4.175000000    -6.869000000
H    -4.038000000     4.449000000    -7.998000000
O    -7.911000000     4.739000000    -0.734000000
H    -7.647000000     3.881000000    -1.066000000
H    -8.477000000     5.097000000    -1.418000000
O    -3.480000000     4.152000000    -5.121000000
H    -2.901000000     3.937000000    -4.389000000
H    -4.356000000     3.931000000    -4.806000000
O    -0.969000000     4.217000000    -2.271000000
H    -0.749000000     4.006000000    -1.364000000
H    -1.765000000     3.714000000    -2.448000000
O    -5.348000000     7.887000000    -3.217000000
H    -5.025000000     7.017000000    -2.981000000
H    -4.609000000     8.305000000    -3.658000000
O    -4.607000000     5.074000000    -2.347000000
H    -5.489000000     4.719000000    -2.450000000
H    -4.045000000     4.303000000    -2.269000000
O    -3.054000000     4.809000000     1.129000000
H    -2.481000000     4.047000000     1.043000000
H    -3.920000000     4.439000000     1.303000000
