201
-1257.06146
C    -0.140000000     2.408000000     4.544000000
H     0.930000000     2.599000000     4.506000000
C    -0.654000000     1.115000000     4.451000000
C    -2.055000000     1.004000000     4.463000000
H    -2.484000000     0.007000000     4.392000000
C     0.231000000    -0.098000000     4.122000000
O     1.535000000     0.104000000     4.550000000
H     0.201000000    -0.220000000     3.029000000
O    -0.243000000    -1.303000000     4.782000000
C    -0.300000000    -2.414000000     3.940000000
C    -1.477000000    -2.745000000     3.311000000
H    -2.306000000    -2.099000000     3.588000000
C    -1.548000000    -3.783000000     2.371000000
O    -2.703000000    -4.011000000     1.652000000
C    -0.361000000    -4.470000000     2.027000000
C    -0.355000000    -5.552000000     0.953000000
H     0.397000000    -6.279000000     1.267000000
C    -0.160000000    -4.966000000    -0.491000000
C     1.100000000    -4.842000000    -1.021000000
H     1.943000000    -5.188000000    -0.429000000
H    -1.317000000    -6.066000000     1.009000000
C     0.858000000    -4.064000000     2.624000000
H     1.720000000    -4.637000000     2.291000000
C     0.913000000    -3.097000000     3.601000000
C     2.265000000    -2.762000000     4.257000000
H     2.836000000    -3.656000000     4.518000000
H     2.108000000    -2.481000000     5.301000000
C     2.890000000    -1.600000000     3.475000000
C     3.804000000    -1.809000000     2.462000000
H     4.087000000    -2.842000000     2.275000000
C     2.535000000    -0.246000000     3.749000000
C     3.121000000     0.828000000     2.990000000
H     2.955000000     1.866000000     3.265000000
C     4.029000000     0.550000000     2.013000000
O     4.443000000     1.549000000     1.217000000
C     3.920000000     1.731000000    -0.076000000
C     3.743000000     3.190000000    -0.366000000
C     3.719000000     3.648000000    -1.658000000
H     4.003000000     2.944000000    -2.436000000
C     3.464000000     4.087000000     0.665000000
H     3.306000000     3.786000000     1.697000000
O     4.638000000     0.954000000    -1.117000000
H     2.870000000     1.405000000    -0.034000000
C     4.360000000    -0.768000000     1.728000000
C     5.297000000    -1.131000000     0.606000000
H     5.792000000    -2.084000000     0.801000000
H     6.000000000    -0.309000000     0.455000000
C     4.463000000    -1.363000000    -0.733000000
C     3.981000000    -2.652000000    -1.132000000
H     4.219000000    -3.534000000    -0.543000000
C     4.194000000    -0.239000000    -1.514000000
C     3.554000000    -0.387000000    -2.727000000
H     3.245000000     0.526000000    -3.228000000
C     3.103000000    -1.654000000    -3.134000000
O     2.196000000    -1.705000000    -4.168000000
C     0.786000000    -1.500000000    -3.733000000
C     0.053000000    -0.260000000    -4.307000000
C     0.764000000     0.769000000    -4.934000000
H     1.846000000     0.757000000    -5.033000000
C    -1.343000000    -0.225000000    -4.261000000
H    -1.905000000    -1.022000000    -3.780000000
O     0.269000000    -2.828000000    -4.052000000
H     0.841000000    -1.403000000    -2.638000000
C     3.294000000    -2.785000000    -2.334000000
C     2.766000000    -4.156000000    -2.734000000
H     3.405000000    -5.030000000    -2.595000000
H     2.652000000    -4.230000000    -3.818000000
C     1.289000000    -4.330000000    -2.276000000
C     0.155000000    -3.703000000    -2.978000000
C    -1.131000000    -3.801000000    -2.461000000
H    -1.955000000    -3.282000000    -2.945000000
C    -1.284000000    -4.434000000    -1.185000000
O    -2.553000000    -4.440000000    -0.584000000
C    -2.788000000    -3.397000000     0.359000000
H    -2.087000000    -2.552000000     0.296000000
C    -4.206000000    -2.914000000     0.150000000
C    -4.972000000    -2.600000000     1.281000000
H    -4.523000000    -2.669000000     2.268000000
C    -4.791000000    -2.795000000    -1.108000000
H    -4.326000000    -3.135000000    -2.030000000
C    -6.017000000    -2.193000000    -1.185000000
O    -6.530000000    -1.873000000    -2.441000000
C    -6.721000000    -1.794000000    -0.116000000
H    -7.689000000    -1.333000000    -0.289000000
C    -6.163000000    -1.913000000     1.165000000
O    -6.854000000    -1.367000000     2.259000000
C    -6.235000000    -0.844000000     3.356000000
C    -5.554000000     0.399000000     3.353000000
H    -5.551000000     1.058000000     2.489000000
C    -6.335000000    -1.632000000     4.486000000
H    -6.860000000    -2.582000000     4.421000000
C    -5.703000000    -1.270000000     5.639000000
H    -5.686000000    -1.947000000     6.489000000
C    -5.089000000     0.041000000     5.661000000
H    -4.594000000     0.344000000     6.580000000
C    -4.961000000     0.813000000     4.498000000
O    -4.287000000     1.997000000     4.545000000
C    -2.937000000     2.068000000     4.436000000
C    -2.374000000     3.302000000     4.443000000
H    -3.020000000     4.173000000     4.369000000
C    -0.998000000     3.538000000     4.373000000
O    -0.483000000     4.869000000     4.306000000
C     0.839000000     5.230000000     4.085000000
C     1.315000000     5.462000000     2.795000000
H     0.575000000     5.385000000     2.002000000
C     1.649000000     5.391000000     5.221000000
H     1.247000000     5.333000000     6.229000000
C     3.032000000     5.751000000     5.019000000
H     3.706000000     5.853000000     5.866000000
C     3.493000000     6.021000000     3.693000000
H     4.529000000     6.268000000     3.475000000
C     2.569000000     5.959000000     2.631000000
O     2.963000000     6.350000000     1.331000000
C     3.179000000     5.433000000     0.374000000
C     3.306000000     5.885000000    -0.903000000
H     3.236000000     6.959000000    -1.058000000
C     3.519000000     5.006000000    -1.987000000
O     3.634000000     5.475000000    -3.264000000
C     3.520000000     4.611000000    -4.326000000
C     2.269000000     4.086000000    -4.711000000
H     1.413000000     4.423000000    -4.131000000
C     4.653000000     4.268000000    -5.149000000
H     5.687000000     4.520000000    -4.929000000
C     4.511000000     3.512000000    -6.278000000
H     5.295000000     3.168000000    -6.949000000
C     3.205000000     3.043000000    -6.614000000
H     3.070000000     2.466000000    -7.526000000
C     2.086000000     3.331000000    -5.853000000
O     0.805000000     2.906000000    -6.133000000
C     0.080000000     1.889000000    -5.463000000
C    -1.262000000     1.933000000    -5.355000000
H    -1.869000000     2.759000000    -5.718000000
C    -1.980000000     0.846000000    -4.811000000
O    -3.386000000     0.913000000    -4.920000000
C    -4.135000000    -0.251000000    -4.770000000
C    -4.152000000    -1.231000000    -5.769000000
H    -3.629000000    -1.016000000    -6.697000000
C    -4.889000000    -2.345000000    -5.617000000
H    -4.978000000    -2.969000000    -6.503000000
C    -5.704000000    -2.551000000    -4.514000000
H    -6.408000000    -3.376000000    -4.445000000
C    -5.674000000    -1.624000000    -3.470000000
C    -4.870000000    -0.474000000    -3.568000000
H    -4.945000000     0.333000000    -2.843000000
O    -6.965000000     1.694000000    -0.807000000
H    -6.267000000     2.219000000    -0.414000000
H    -6.654000000     0.791000000    -0.734000000
O    -5.785000000     7.516000000    -0.013000000
H    -6.290000000     7.492000000     0.799000000
H    -5.241000000     6.729000000     0.020000000
O     0.403000000     2.830000000     1.325000000
H    -0.438000000     2.375000000     1.293000000
H     0.509000000     3.199000000     0.448000000
O    -9.730000000     0.595000000    -1.219000000
H    -8.819000000     0.770000000    -0.983000000
H    -9.682000000    -0.132000000    -1.839000000
O    -6.903000000     4.930000000    -2.335000000
H    -7.136000000     5.856000000    -2.269000000
H    -7.633000000     4.469000000    -1.919000000
O    -6.084000000     4.250000000     1.588000000
H    -5.506000000     3.675000000     1.087000000
H    -6.948000000     4.122000000     1.195000000
O     0.783000000     7.081000000    -2.734000000
H     0.286000000     6.951000000    -3.542000000
H     0.533000000     6.344000000    -2.177000000
O    -1.218000000     6.605000000     0.259000000
H    -1.926000000     6.064000000     0.610000000
H    -1.561000000     7.498000000     0.291000000
O    -5.433000000     3.046000000    -3.772000000
H    -6.013000000     3.652000000    -3.311000000
H    -4.688000000     2.931000000    -3.181000000
O    -6.823000000     7.050000000     2.598000000
H    -7.632000000     7.228000000     3.078000000
H    -6.772000000     6.095000000     2.559000000
O    -4.227000000     4.345000000    -5.893000000
H    -4.677000000     3.966000000    -5.138000000
H    -4.011000000     3.593000000    -6.444000000
O    -2.588000000     7.869000000    -1.842000000
H    -2.375000000     7.146000000    -1.252000000
H    -3.379000000     7.582000000    -2.298000000
O    -7.779000000     1.654000000    -5.310000000
H    -7.092000000     1.660000000    -4.643000000
H    -7.331000000     1.906000000    -6.117000000
O    -6.407000000     4.478000000     4.477000000
H    -7.328000000     4.277000000     4.644000000
H    -6.247000000     4.150000000     3.592000000
O    -8.484000000     3.628000000     0.314000000
H    -9.245000000     4.031000000    -0.103000000
H    -8.232000000     2.921000000    -0.280000000
O    -2.078000000     5.008000000    -4.450000000
H    -2.587000000     5.469000000    -3.783000000
H    -2.731000000     4.701000000    -5.079000000
O    -0.175000000     4.616000000    -1.270000000
H    -0.632000000     5.259000000    -0.728000000
H    -0.669000000     4.600000000    -2.090000000
O    -4.287000000     5.822000000    -2.601000000
H    -5.232000000     5.689000000    -2.670000000
H    -3.971000000     5.051000000    -2.131000000
O    -3.648000000     5.357000000     0.411000000
H    -3.470000000     4.725000000    -0.286000000
H    -4.227000000     4.892000000     1.014000000
