201
-1230.80906
C    -4.804000000    -0.784000000    -2.333000000
H    -4.291000000    -0.708000000    -3.288000000
C    -4.760000000     0.233000000    -1.351000000
C    -5.278000000    -0.064000000    -0.093000000
H    -5.312000000     0.678000000     0.701000000
C    -3.831000000     1.457000000    -1.456000000
O    -3.588000000     1.733000000    -2.876000000
H    -2.859000000     1.109000000    -1.077000000
O    -4.301000000     2.608000000    -0.645000000
C    -3.311000000     3.345000000     0.017000000
C    -3.245000000     3.260000000     1.440000000
H    -3.934000000     2.634000000     2.003000000
C    -2.146000000     3.787000000     2.071000000
O    -1.949000000     3.437000000     3.362000000
C    -1.158000000     4.564000000     1.425000000
C    -0.003000000     5.257000000     2.207000000
H     0.426000000     6.198000000     1.854000000
C     1.217000000     4.291000000     2.158000000
C     2.113000000     4.454000000     1.167000000
H     2.042000000     5.088000000     0.286000000
H    -0.365000000     5.441000000     3.221000000
C    -1.294000000     4.708000000     0.024000000
H    -0.533000000     5.304000000    -0.473000000
C    -2.330000000     4.124000000    -0.719000000
C    -2.424000000     4.374000000    -2.185000000
H    -2.036000000     5.390000000    -2.288000000
H    -3.425000000     4.577000000    -2.571000000
C    -1.699000000     3.266000000    -2.911000000
C    -0.360000000     3.535000000    -3.200000000
H     0.107000000     4.474000000    -2.914000000
C    -2.329000000     2.060000000    -3.285000000
C    -1.571000000     1.107000000    -3.928000000
H    -2.051000000     0.202000000    -4.291000000
C    -0.232000000     1.384000000    -4.224000000
O     0.445000000     0.404000000    -4.847000000
C     1.380000000    -0.407000000    -4.118000000
C     1.276000000    -1.907000000    -4.385000000
C     2.348000000    -2.769000000    -4.120000000
H     3.311000000    -2.300000000    -3.932000000
C     0.046000000    -2.453000000    -4.557000000
H    -0.764000000    -1.775000000    -4.814000000
O     2.684000000     0.142000000    -4.206000000
H     1.043000000    -0.147000000    -3.104000000
C     0.374000000     2.598000000    -3.868000000
C     1.769000000     2.977000000    -4.296000000
H     2.034000000     4.033000000    -4.375000000
H     1.869000000     2.522000000    -5.284000000
C     2.632000000     2.360000000    -3.280000000
C     3.106000000     3.216000000    -2.316000000
H     2.720000000     4.231000000    -2.363000000
C     3.125000000     1.027000000    -3.316000000
C     3.876000000     0.541000000    -2.289000000
H     4.250000000    -0.478000000    -2.339000000
C     4.310000000     1.375000000    -1.305000000
O     4.905000000     0.748000000    -0.247000000
C     3.966000000     0.426000000     0.920000000
C     4.216000000    -0.996000000     1.367000000
C     4.959000000    -1.939000000     0.607000000
H     5.316000000    -1.642000000    -0.375000000
C     3.801000000    -1.463000000     2.588000000
H     3.231000000    -0.794000000     3.229000000
O     4.148000000     1.371000000     1.977000000
H     2.900000000     0.492000000     0.659000000
C     3.939000000     2.754000000    -1.314000000
C     4.267000000     3.639000000    -0.112000000
H     4.251000000     4.700000000    -0.368000000
H     5.242000000     3.357000000     0.292000000
C     3.185000000     3.521000000     1.078000000
C     3.231000000     2.457000000     2.014000000
C     2.424000000     2.489000000     3.085000000
H     2.644000000     1.754000000     3.855000000
C     1.364000000     3.347000000     3.163000000
O     0.335000000     3.129000000     4.031000000
C    -0.923000000     2.454000000     3.583000000
H    -0.687000000     1.942000000     2.638000000
C    -1.354000000     1.375000000     4.575000000
C    -2.689000000     0.923000000     4.525000000
H    -3.230000000     1.387000000     3.704000000
C    -0.416000000     0.759000000     5.421000000
H     0.659000000     0.913000000     5.365000000
C    -0.865000000    -0.236000000     6.326000000
O     0.047000000    -1.104000000     7.039000000
C    -2.171000000    -0.630000000     6.357000000
H    -2.421000000    -1.546000000     6.885000000
C    -3.074000000    -0.072000000     5.428000000
O    -4.327000000    -0.628000000     5.377000000
C    -5.247000000    -0.194000000     4.488000000
C    -5.559000000    -1.033000000     3.453000000
H    -5.010000000    -1.971000000     3.446000000
C    -5.959000000     1.002000000     4.601000000
H    -5.701000000     1.676000000     5.414000000
C    -6.951000000     1.289000000     3.696000000
H    -7.551000000     2.180000000     3.867000000
C    -7.146000000     0.472000000     2.595000000
H    -7.957000000     0.732000000     1.919000000
C    -6.452000000    -0.719000000     2.446000000
O    -6.576000000    -1.563000000     1.409000000
C    -6.004000000    -1.260000000     0.186000000
C    -5.924000000    -2.263000000    -0.777000000
H    -6.250000000    -3.256000000    -0.477000000
C    -5.341000000    -2.045000000    -2.026000000
O    -5.201000000    -3.182000000    -2.803000000
C    -4.479000000    -3.320000000    -4.015000000
C    -3.158000000    -3.658000000    -4.022000000
H    -2.636000000    -3.814000000    -3.081000000
C    -5.165000000    -3.085000000    -5.198000000
H    -6.216000000    -2.809000000    -5.204000000
C    -4.521000000    -3.350000000    -6.467000000
H    -5.055000000    -3.372000000    -7.414000000
C    -3.157000000    -3.732000000    -6.489000000
H    -2.591000000    -3.816000000    -7.413000000
C    -2.481000000    -3.851000000    -5.245000000
O    -1.250000000    -4.433000000    -5.207000000
C    -0.101000000    -3.828000000    -4.579000000
C     0.934000000    -4.666000000    -4.294000000
H     0.691000000    -5.722000000    -4.204000000
C     2.202000000    -4.151000000    -4.051000000
O     3.114000000    -5.045000000    -3.586000000
C     4.320000000    -4.664000000    -3.036000000
C     4.452000000    -4.776000000    -1.656000000
H     3.570000000    -5.197000000    -1.181000000
C     5.402000000    -4.216000000    -3.830000000
H     5.331000000    -4.196000000    -4.915000000
C     6.551000000    -3.776000000    -3.173000000
H     7.426000000    -3.423000000    -3.713000000
C     6.678000000    -3.792000000    -1.710000000
H     7.600000000    -3.607000000    -1.166000000
C     5.614000000    -4.333000000    -1.004000000
O     5.680000000    -4.320000000     0.338000000
C     5.140000000    -3.283000000     1.036000000
C     4.629000000    -3.685000000     2.258000000
H     4.682000000    -4.737000000     2.526000000
C     3.935000000    -2.803000000     3.086000000
O     3.538000000    -3.113000000     4.386000000
C     3.116000000    -2.135000000     5.242000000
C     4.030000000    -1.335000000     5.928000000
H     5.055000000    -1.439000000     5.583000000
C     3.639000000    -0.570000000     6.987000000
H     4.458000000    -0.006000000     7.426000000
C     2.318000000    -0.492000000     7.401000000
H     2.092000000     0.271000000     8.141000000
C     1.353000000    -1.273000000     6.720000000
C     1.799000000    -2.135000000     5.738000000
H     1.054000000    -2.783000000     5.284000000
O     3.955000000    -7.416000000     1.904000000
H     3.602000000    -7.915000000     2.640000000
H     3.224000000    -6.872000000     1.610000000
O    -1.030000000    -7.654000000    -5.192000000
H    -1.637000000    -7.251000000    -5.813000000
H    -0.926000000    -7.002000000    -4.500000000
O     1.668000000    -9.219000000    -4.358000000
H     0.783000000    -9.477000000    -4.615000000
H     2.146000000    -9.149000000    -5.184000000
O    -4.622000000    -6.051000000     2.366000000
H    -4.330000000    -5.765000000     1.500000000
H    -4.734000000    -6.998000000     2.280000000
O    -0.684000000    -4.697000000     2.925000000
H    -0.357000000    -3.903000000     2.503000000
H    -1.594000000    -4.496000000     3.143000000
O    -2.410000000   -10.300000000     0.267000000
H    -1.980000000   -10.661000000    -0.509000000
H    -2.457000000    -9.359000000     0.098000000
O    -3.961000000    -4.940000000    -0.306000000
H    -3.797000000    -4.026000000    -0.537000000
H    -3.276000000    -5.430000000    -0.761000000
O    -1.528000000    -6.688000000     1.200000000
H    -1.211000000    -6.514000000     0.314000000
H    -1.457000000    -5.845000000     1.649000000
O     3.563000000    -7.369000000    -5.514000000
H     3.115000000    -6.677000000    -5.027000000
H     4.139000000    -6.901000000    -6.119000000
O     1.352000000    -8.087000000    -1.362000000
H     1.469000000    -8.267000000    -2.294000000
H     1.217000000    -7.140000000    -1.316000000
O     1.394000000    -6.660000000     1.440000000
H     1.262000000    -6.498000000     0.506000000
H     0.714000000    -6.143000000     1.872000000
O    -3.145000000    -4.182000000     3.849000000
H    -3.579000000    -4.886000000     3.368000000
H    -3.275000000    -4.406000000     4.771000000
O    -1.446000000    -8.194000000    -2.084000000
H    -0.682000000    -8.536000000    -1.620000000
H    -1.465000000    -7.264000000    -1.862000000
O    -6.022000000    -6.638000000    -0.874000000
H    -5.317000000    -6.111000000    -0.497000000
H    -5.732000000    -6.821000000    -1.768000000
O    -3.396000000    -9.793000000    -3.220000000
H    -3.444000000   -10.627000000    -2.752000000
H    -2.713000000    -9.302000000    -2.763000000
O    -0.837000000    -8.204000000     3.677000000
H    -1.050000000    -8.096000000     2.750000000
H    -0.716000000    -9.147000000     3.786000000
O    -2.233000000    -1.676000000     2.940000000
H    -2.756000000    -2.459000000     3.117000000
H    -1.361000000    -2.013000000     2.733000000
O     0.947000000    -9.884000000     0.576000000
H     1.100000000    -9.427000000     1.403000000
H     0.964000000    -9.192000000    -0.086000000
O     0.359000000    -2.169000000     2.200000000
H     0.567000000    -1.375000000     2.693000000
H     0.951000000    -2.145000000     1.448000000
