201
-1280.01786
C     0.792000000     2.471000000     4.883000000
H     1.740000000     2.839000000     4.500000000
C     0.529000000     1.097000000     4.895000000
C    -0.665000000     0.698000000     5.482000000
H    -0.984000000    -0.338000000     5.404000000
C     1.449000000     0.176000000     4.162000000
O     2.808000000     0.732000000     4.203000000
H     1.098000000     0.102000000     3.122000000
O     1.370000000    -1.150000000     4.735000000
C     1.506000000    -2.187000000     3.833000000
C     0.334000000    -2.764000000     3.424000000
H    -0.610000000    -2.564000000     3.925000000
C     0.312000000    -3.718000000     2.443000000
O    -0.915000000    -4.233000000     2.095000000
C     1.525000000    -4.131000000     1.812000000
C     1.499000000    -5.251000000     0.739000000
H     2.507000000    -5.669000000     0.723000000
C     1.193000000    -4.615000000    -0.565000000
C     2.224000000    -4.179000000    -1.388000000
H     3.269000000    -4.332000000    -1.128000000
H     0.874000000    -6.085000000     1.065000000
C     2.697000000    -3.582000000     2.286000000
H     3.560000000    -3.780000000     1.656000000
C     2.708000000    -2.566000000     3.240000000
C     4.006000000    -1.810000000     3.583000000
H     4.783000000    -2.488000000     3.224000000
H     4.136000000    -1.629000000     4.652000000
C     4.187000000    -0.531000000     2.716000000
C     4.821000000    -0.614000000     1.495000000
H     5.425000000    -1.502000000     1.328000000
C     3.568000000     0.701000000     3.114000000
C     3.600000000     1.748000000     2.174000000
H     3.074000000     2.666000000     2.423000000
C     4.250000000     1.655000000     0.947000000
O     4.000000000     2.766000000     0.151000000
C     3.112000000     2.567000000    -0.898000000
C     2.173000000     3.766000000    -1.067000000
C     1.692000000     4.097000000    -2.358000000
H     2.067000000     3.682000000    -3.289000000
C     1.630000000     4.450000000     0.011000000
H     1.920000000     4.092000000     0.996000000
O     3.848000000     2.258000000    -2.042000000
H     2.576000000     1.641000000    -0.642000000
C     4.893000000     0.457000000     0.570000000
C     5.490000000     0.324000000    -0.815000000
H     6.306000000    -0.387000000    -0.958000000
H     5.879000000     1.318000000    -1.047000000
C     4.495000000    -0.020000000    -1.885000000
C     4.304000000    -1.339000000    -2.248000000
H     4.884000000    -2.169000000    -1.853000000
C     3.734000000     0.956000000    -2.492000000
C     2.815000000     0.684000000    -3.500000000
H     2.184000000     1.425000000    -3.984000000
C     2.553000000    -0.668000000    -3.822000000
O     1.486000000    -0.900000000    -4.661000000
C     0.216000000    -1.440000000    -4.049000000
C    -1.001000000    -0.825000000    -4.721000000
C    -0.911000000     0.483000000    -5.152000000
H     0.018000000     1.017000000    -4.967000000
C    -2.259000000    -1.441000000    -4.797000000
H    -2.385000000    -2.429000000    -4.364000000
O     0.197000000    -2.849000000    -4.149000000
H     0.188000000    -1.245000000    -2.967000000
C     3.353000000    -1.666000000    -3.255000000
C     3.004000000    -3.109000000    -3.588000000
H     3.938000000    -3.667000000    -3.675000000
H     2.644000000    -3.100000000    -4.619000000
C     1.911000000    -3.622000000    -2.647000000
C     0.583000000    -3.456000000    -2.966000000
C    -0.462000000    -3.826000000    -2.100000000
H    -1.500000000    -3.553000000    -2.275000000
C    -0.163000000    -4.481000000    -0.913000000
O    -1.217000000    -4.831000000    -0.105000000
C    -1.501000000    -3.809000000     0.861000000
H    -1.059000000    -2.837000000     0.599000000
C    -2.988000000    -3.522000000     1.093000000
C    -3.418000000    -2.830000000     2.237000000
H    -2.831000000    -2.675000000     3.138000000
C    -3.893000000    -3.651000000    -0.015000000
H    -3.592000000    -4.148000000    -0.933000000
C    -5.187000000    -3.150000000     0.120000000
O    -6.067000000    -3.355000000    -0.939000000
C    -5.608000000    -2.596000000     1.322000000
H    -6.642000000    -2.259000000     1.340000000
C    -4.694000000    -2.459000000     2.365000000
O    -5.163000000    -1.716000000     3.427000000
C    -4.438000000    -1.513000000     4.624000000
C    -4.002000000    -0.216000000     4.956000000
H    -4.082000000     0.662000000     4.320000000
C    -4.185000000    -2.579000000     5.435000000
H    -4.622000000    -3.560000000     5.265000000
C    -3.546000000    -2.384000000     6.659000000
H    -3.508000000    -3.236000000     7.333000000
C    -3.083000000    -1.113000000     7.021000000
H    -2.604000000    -1.086000000     7.997000000
C    -3.331000000    -0.057000000     6.117000000
O    -2.827000000     1.156000000     6.327000000
C    -1.606000000     1.609000000     5.931000000
C    -1.354000000     2.984000000     5.962000000
H    -2.060000000     3.722000000     6.333000000
C    -0.172000000     3.352000000     5.424000000
O     0.185000000     4.685000000     5.601000000
C     0.567000000     5.549000000     4.553000000
C     0.035000000     5.447000000     3.270000000
H    -0.797000000     4.822000000     2.958000000
C     1.572000000     6.479000000     4.842000000
H     1.995000000     6.359000000     5.836000000
C     2.174000000     7.207000000     3.856000000
H     3.083000000     7.799000000     3.912000000
C     1.550000000     7.141000000     2.570000000
H     1.987000000     7.795000000     1.819000000
C     0.518000000     6.263000000     2.259000000
O     0.079000000     6.102000000     0.922000000
C     0.646000000     5.434000000    -0.127000000
C     0.222000000     5.850000000    -1.344000000
H    -0.395000000     6.737000000    -1.464000000
C     0.829000000     5.271000000    -2.466000000
O     0.573000000     5.771000000    -3.730000000
C     0.426000000     4.996000000    -4.858000000
C    -0.734000000     4.225000000    -4.883000000
H    -1.603000000     4.330000000    -4.240000000
C     1.415000000     4.849000000    -5.816000000
H     2.316000000     5.456000000    -5.776000000
C     1.298000000     4.008000000    -6.906000000
H     2.060000000     3.900000000    -7.674000000
C     0.104000000     3.182000000    -6.929000000
H    -0.020000000     2.517000000    -7.781000000
C    -0.826000000     3.294000000    -5.926000000
O    -1.973000000     2.585000000    -5.992000000
C    -2.016000000     1.185000000    -5.623000000
C    -3.235000000     0.527000000    -5.719000000
H    -4.134000000     1.065000000    -6.009000000
C    -3.453000000    -0.792000000    -5.265000000
O    -4.737000000    -1.237000000    -5.080000000
C    -5.031000000    -2.377000000    -4.369000000
C    -4.791000000    -3.619000000    -4.882000000
H    -4.416000000    -3.698000000    -5.899000000
C    -5.122000000    -4.828000000    -4.216000000
H    -5.086000000    -5.803000000    -4.696000000
C    -5.546000000    -4.719000000    -2.937000000
H    -5.946000000    -5.587000000    -2.419000000
C    -5.684000000    -3.462000000    -2.281000000
C    -5.426000000    -2.278000000    -2.966000000
H    -5.465000000    -1.303000000    -2.486000000
O    -8.348000000    -2.040000000    -3.330000000
H    -7.814000000    -2.764000000    -3.655000000
H    -9.140000000    -2.066000000    -3.867000000
O    -8.606000000     3.490000000    -3.474000000
H    -8.750000000     2.545000000    -3.432000000
H    -7.656000000     3.586000000    -3.539000000
O    -6.119000000     4.165000000    -3.559000000
H    -5.513000000     3.511000000    -3.210000000
H    -5.925000000     4.194000000    -4.496000000
O    -2.379000000     3.573000000     0.412000000
H    -2.995000000     4.101000000    -0.097000000
H    -1.994000000     2.973000000    -0.226000000
O    -4.431000000     4.336000000    -6.158000000
H    -4.813000000     3.703000000    -6.766000000
H    -3.590000000     3.952000000    -5.910000000
O    -3.333000000     6.674000000    -5.535000000
H    -3.497000000     7.178000000    -6.332000000
H    -3.892000000     5.902000000    -5.621000000
O    -5.445000000     5.422000000     0.946000000
H    -5.803000000     4.534000000     0.970000000
H    -4.834000000     5.414000000     0.209000000
O    -7.391000000     0.298000000     0.138000000
H    -6.897000000     0.236000000    -0.679000000
H    -6.740000000     0.150000000     0.824000000
O    -9.405000000    -0.861000000     1.101000000
H    -8.706000000    -0.395000000     0.641000000
H    -9.059000000    -1.744000000     1.230000000
O    -5.755000000     1.648000000     2.113000000
H    -4.836000000     1.738000000     2.365000000
H    -5.888000000     2.326000000     1.450000000
O    -6.770000000     3.193000000    -0.119000000
H    -7.706000000     3.039000000    -0.246000000
H    -6.343000000     2.515000000    -0.642000000
O    -3.820000000     4.980000000    -1.497000000
H    -3.934000000     5.826000000    -1.930000000
H    -3.935000000     4.336000000    -2.195000000
O    -4.189000000     7.048000000    -3.161000000
H    -4.459000000     7.966000000    -3.170000000
H    -4.191000000     6.789000000    -4.083000000
O    -7.708000000     0.486000000    -3.492000000
H    -7.874000000    -0.425000000    -3.248000000
H    -6.989000000     0.760000000    -2.923000000
O    -7.125000000     6.189000000    -1.766000000
H    -6.698000000     6.224000000    -0.910000000
H    -6.673000000     5.484000000    -2.230000000
O    -7.510000000     1.301000000    -6.174000000
H    -8.305000000     1.825000000    -6.268000000
H    -7.455000000     1.115000000    -5.236000000
O    -7.227000000    -1.246000000    -6.746000000
H    -7.353000000    -0.299000000    -6.804000000
H    -6.444000000    -1.351000000    -6.206000000
O    -9.428000000     2.347000000    -0.301000000
H    -9.447000000     2.703000000     0.588000000
H    -9.888000000     1.511000000    -0.234000000
O    -3.422000000     2.861000000     2.673000000
H    -2.995000000     3.155000000     1.869000000
H    -3.380000000     3.618000000     3.257000000
