201
-1262.91780
C    -4.119000000    -0.636000000    -2.156000000
H    -3.547000000    -0.625000000    -3.081000000
C    -4.174000000     0.532000000    -1.386000000
C    -4.933000000     0.486000000    -0.222000000
H    -4.988000000     1.377000000     0.400000000
C    -3.432000000     1.860000000    -1.697000000
O    -3.189000000     2.114000000    -3.117000000
H    -2.482000000     1.646000000    -1.186000000
O    -3.832000000     3.024000000    -0.971000000
C    -2.891000000     3.701000000    -0.141000000
C    -2.816000000     3.405000000     1.254000000
H    -3.528000000     2.780000000     1.786000000
C    -1.786000000     4.027000000     1.956000000
O    -1.609000000     3.787000000     3.304000000
C    -0.738000000     4.685000000     1.386000000
C     0.451000000     5.120000000     2.184000000
H     0.829000000     6.050000000     1.755000000
C     1.531000000     4.078000000     2.120000000
C     2.520000000     4.147000000     1.135000000
H     2.493000000     4.902000000     0.353000000
H     0.230000000     5.379000000     3.221000000
C    -0.723000000     4.795000000    -0.002000000
H     0.112000000     5.269000000    -0.512000000
C    -1.759000000     4.327000000    -0.759000000
C    -1.794000000     4.546000000    -2.294000000
H    -1.266000000     5.454000000    -2.594000000
H    -2.838000000     4.751000000    -2.540000000
C    -1.129000000     3.359000000    -3.049000000
C     0.163000000     3.485000000    -3.415000000
H     0.641000000     4.408000000    -3.098000000
C    -1.850000000     2.273000000    -3.475000000
C    -1.215000000     1.191000000    -4.190000000
H    -1.687000000     0.280000000    -4.550000000
C     0.203000000     1.258000000    -4.358000000
O     0.776000000     0.182000000    -5.056000000
C     1.508000000    -0.707000000    -4.192000000
C     1.295000000    -2.177000000    -4.512000000
C     2.243000000    -3.169000000    -4.238000000
H     3.199000000    -2.872000000    -3.814000000
C     0.085000000    -2.642000000    -4.993000000
H    -0.699000000    -1.941000000    -5.269000000
O     2.864000000    -0.436000000    -4.250000000
H     1.132000000    -0.509000000    -3.178000000
C     0.849000000     2.468000000    -4.131000000
C     2.305000000     2.591000000    -4.474000000
H     2.453000000     3.672000000    -4.521000000
H     2.471000000     2.072000000    -5.420000000
C     3.050000000     1.929000000    -3.336000000
C     3.406000000     2.716000000    -2.256000000
H     2.876000000     3.660000000    -2.155000000
C     3.385000000     0.538000000    -3.368000000
C     4.091000000     0.005000000    -2.313000000
H     4.335000000    -1.053000000    -2.261000000
C     4.402000000     0.805000000    -1.167000000
O     4.921000000     0.251000000    -0.030000000
C     3.944000000     0.043000000     1.004000000
C     3.942000000    -1.423000000     1.569000000
C     4.373000000    -2.542000000     0.793000000
H     4.861000000    -2.295000000    -0.146000000
C     3.427000000    -1.632000000     2.850000000
H     3.102000000    -0.812000000     3.485000000
O     4.226000000     0.963000000     2.015000000
H     2.909000000     0.180000000     0.657000000
C     4.095000000     2.148000000    -1.180000000
C     4.453000000     3.152000000    -0.072000000
H     4.587000000     4.168000000    -0.449000000
H     5.418000000     2.825000000     0.319000000
C     3.444000000     3.097000000     1.058000000
C     3.458000000     2.096000000     2.069000000
C     2.516000000     2.128000000     3.049000000
H     2.331000000     1.249000000     3.661000000
C     1.536000000     3.057000000     3.042000000
O     0.568000000     2.977000000     4.001000000
C    -0.777000000     2.586000000     3.600000000
H    -0.888000000     1.813000000     2.825000000
C    -1.339000000     1.774000000     4.656000000
C    -2.700000000     1.461000000     4.646000000
H    -3.364000000     1.938000000     3.929000000
C    -0.575000000     0.933000000     5.433000000
H     0.499000000     1.021000000     5.294000000
C    -1.142000000    -0.130000000     6.225000000
O    -0.401000000    -0.887000000     7.080000000
C    -2.507000000    -0.297000000     6.236000000
H    -2.905000000    -1.065000000     6.895000000
C    -3.272000000     0.468000000     5.398000000
O    -4.661000000     0.452000000     5.575000000
C    -5.481000000     0.807000000     4.491000000
C    -5.505000000     0.033000000     3.328000000
H    -4.757000000    -0.738000000     3.164000000
C    -6.342000000     1.883000000     4.579000000
H    -6.257000000     2.589000000     5.401000000
C    -7.314000000     2.098000000     3.622000000
H    -8.032000000     2.906000000     3.733000000
C    -7.290000000     1.350000000     2.415000000
H    -7.947000000     1.562000000     1.575000000
C    -6.435000000     0.293000000     2.332000000
O    -6.528000000    -0.627000000     1.280000000
C    -5.660000000    -0.648000000     0.145000000
C    -5.593000000    -1.728000000    -0.656000000
H    -6.110000000    -2.644000000    -0.382000000
C    -4.843000000    -1.747000000    -1.821000000
O    -4.803000000    -2.911000000    -2.474000000
C    -4.364000000    -3.055000000    -3.826000000
C    -3.138000000    -3.665000000    -4.107000000
H    -2.584000000    -4.022000000    -3.243000000
C    -5.051000000    -2.509000000    -4.889000000
H    -5.993000000    -2.037000000    -4.622000000
C    -4.648000000    -2.730000000    -6.191000000
H    -5.187000000    -2.296000000    -7.029000000
C    -3.404000000    -3.360000000    -6.419000000
H    -2.993000000    -3.464000000    -7.420000000
C    -2.662000000    -3.855000000    -5.369000000
O    -1.438000000    -4.451000000    -5.566000000
C    -0.235000000    -4.014000000    -5.059000000
C     0.698000000    -4.990000000    -4.684000000
H     0.396000000    -6.033000000    -4.724000000
C     1.960000000    -4.549000000    -4.358000000
O     2.921000000    -5.496000000    -3.960000000
C     3.935000000    -5.296000000    -3.138000000
C     3.696000000    -5.252000000    -1.748000000
H     2.715000000    -5.564000000    -1.400000000
C     5.212000000    -5.013000000    -3.676000000
H     5.314000000    -4.968000000    -4.757000000
C     6.242000000    -4.625000000    -2.749000000
H     7.186000000    -4.292000000    -3.173000000
C     5.976000000    -4.389000000    -1.407000000
H     6.775000000    -4.102000000    -0.728000000
C     4.709000000    -4.798000000    -0.864000000
O     4.411000000    -4.900000000     0.479000000
C     4.024000000    -3.804000000     1.240000000
C     3.591000000    -4.078000000     2.521000000
H     3.493000000    -5.039000000     3.019000000
C     3.342000000    -2.969000000     3.356000000
O     2.828000000    -3.271000000     4.612000000
C     2.529000000    -2.299000000     5.552000000
C     3.569000000    -1.574000000     6.173000000
H     4.609000000    -1.863000000     6.043000000
C     3.263000000    -0.455000000     7.093000000
H     4.024000000     0.160000000     7.567000000
C     1.934000000    -0.304000000     7.482000000
H     1.700000000     0.432000000     8.247000000
C     0.929000000    -1.025000000     6.814000000
C     1.249000000    -2.065000000     5.953000000
H     0.458000000    -2.690000000     5.547000000
O     1.523000000    -9.851000000     1.951000000
H     2.479000000    -9.881000000     1.986000000
H     1.327000000    -9.397000000     1.131000000
O    -0.982000000    -8.749000000    -5.433000000
H    -1.605000000    -8.345000000    -6.037000000
H    -0.997000000    -8.185000000    -4.660000000
O     2.784000000    -9.282000000    -0.828000000
H     2.214000000    -8.810000000    -1.434000000
H     2.735000000    -8.782000000    -0.013000000
O    -4.574000000    -6.282000000     2.375000000
H    -4.250000000    -6.558000000     1.518000000
H    -5.228000000    -6.941000000     2.608000000
O     0.478000000    -5.625000000     2.761000000
H     0.590000000    -4.720000000     3.051000000
H    -0.419000000    -5.848000000     3.013000000
O    -4.063000000    -9.591000000     0.254000000
H    -4.675000000    -9.727000000    -0.469000000
H    -3.274000000    -9.243000000    -0.163000000
O    -4.162000000    -6.086000000    -1.454000000
H    -3.905000000    -6.652000000    -2.182000000
H    -3.335000000    -5.753000000    -1.106000000
O    -1.569000000    -7.939000000     0.105000000
H    -1.445000000    -7.107000000    -0.350000000
H    -0.965000000    -7.900000000     0.846000000
O     1.290000000    -7.626000000    -2.577000000
H     2.095000000    -7.436000000    -3.059000000
H     1.050000000    -6.793000000    -2.172000000
O     1.194000000    -7.368000000     0.734000000
H     1.075000000    -6.731000000     0.029000000
H     1.247000000    -6.837000000     1.529000000
O    -1.933000000    -5.481000000     3.971000000
H    -2.593000000    -5.890000000     3.412000000
H    -2.343000000    -5.439000000     4.835000000
O    -4.676000000    -3.589000000     3.225000000
H    -5.379000000    -3.218000000     2.692000000
H    -4.599000000    -4.494000000     2.924000000
O    -1.530000000    -7.787000000    -2.742000000
H    -0.743000000    -8.217000000    -2.410000000
H    -1.467000000    -6.888000000    -2.418000000
O    -6.783000000    -5.292000000    -1.296000000
H    -5.828000000    -5.362000000    -1.310000000
H    -7.016000000    -5.011000000    -2.180000000
O    -2.166000000    -8.798000000     2.695000000
H    -2.502000000    -8.868000000     1.802000000
H    -2.594000000    -9.510000000     3.169000000
O    -3.985000000    -8.045000000    -3.519000000
H    -4.205000000    -8.971000000    -3.626000000
H    -3.094000000    -8.049000000    -3.170000000
O    -1.777000000    -2.693000000     3.582000000
H    -1.400000000    -3.565000000     3.699000000
H    -2.713000000    -2.813000000     3.738000000
O    -0.702000000   -10.493000000    -0.253000000
H    -0.322000000   -10.596000000     0.619000000
H    -0.989000000    -9.580000000    -0.283000000
O     0.171000000    -0.657000000     3.013000000
H     0.214000000    -0.977000000     2.112000000
H    -0.304000000    -1.340000000     3.487000000
