201
-1261.16814
C    -0.095000000     2.540000000     4.119000000
H     0.899000000     2.693000000     3.707000000
C    -0.197000000     1.241000000     4.502000000
C    -1.329000000     0.758000000     5.150000000
H    -1.451000000    -0.301000000     5.364000000
C     0.963000000     0.264000000     4.167000000
O     2.282000000     0.836000000     4.415000000
H     0.911000000     0.065000000     3.087000000
O     0.854000000    -1.017000000     4.930000000
C     0.831000000    -2.169000000     4.117000000
C    -0.342000000    -2.730000000     3.581000000
H    -1.301000000    -2.355000000     3.930000000
C    -0.282000000    -3.706000000     2.553000000
O    -1.497000000    -4.193000000     2.132000000
C     0.913000000    -4.322000000     2.301000000
C     0.993000000    -5.440000000     1.212000000
H     1.960000000    -5.944000000     1.268000000
C     0.831000000    -4.908000000    -0.185000000
C     1.972000000    -4.448000000    -0.893000000
H     2.946000000    -4.549000000    -0.423000000
H     0.253000000    -6.179000000     1.525000000
C     2.110000000    -3.798000000     2.845000000
H     3.081000000    -4.180000000     2.541000000
C     2.094000000    -2.706000000     3.722000000
C     3.408000000    -1.999000000     4.113000000
H     4.284000000    -2.650000000     4.148000000
H     3.298000000    -1.628000000     5.134000000
C     3.719000000    -0.814000000     3.215000000
C     4.643000000    -0.969000000     2.120000000
H     5.176000000    -1.907000000     1.986000000
C     3.169000000     0.464000000     3.435000000
C     3.507000000     1.513000000     2.540000000
H     3.196000000     2.522000000     2.799000000
C     4.306000000     1.348000000     1.433000000
O     4.386000000     2.453000000     0.596000000
C     3.505000000     2.342000000    -0.548000000
C     2.800000000     3.641000000    -0.802000000
C     1.930000000     3.823000000    -1.857000000
H     1.982000000     3.096000000    -2.663000000
C     2.897000000     4.708000000     0.122000000
H     3.542000000     4.640000000     0.995000000
O     4.306000000     1.905000000    -1.667000000
H     2.830000000     1.484000000    -0.419000000
C     4.862000000     0.079000000     1.199000000
C     5.643000000    -0.177000000    -0.053000000
H     6.297000000    -1.023000000     0.168000000
H     6.264000000     0.710000000    -0.197000000
C     4.809000000    -0.520000000    -1.196000000
C     4.635000000    -1.844000000    -1.645000000
H     4.939000000    -2.618000000    -0.944000000
C     4.306000000     0.573000000    -1.990000000
C     3.466000000     0.333000000    -3.059000000
H     2.912000000     1.161000000    -3.492000000
C     3.127000000    -1.029000000    -3.336000000
O     2.118000000    -1.235000000    -4.216000000
C     0.758000000    -1.339000000    -3.779000000
C    -0.247000000    -0.640000000    -4.693000000
C     0.071000000     0.486000000    -5.503000000
H     1.123000000     0.759000000    -5.503000000
C    -1.573000000    -1.074000000    -4.685000000
H    -1.960000000    -1.925000000    -4.130000000
O     0.434000000    -2.755000000    -3.789000000
H     0.662000000    -0.955000000    -2.753000000
C     3.698000000    -2.059000000    -2.647000000
C     3.214000000    -3.473000000    -2.868000000
H     3.974000000    -4.224000000    -2.643000000
H     3.103000000    -3.751000000    -3.918000000
C     1.889000000    -3.784000000    -2.108000000
C     0.627000000    -3.471000000    -2.613000000
C    -0.540000000    -3.870000000    -1.917000000
H    -1.501000000    -3.603000000    -2.348000000
C    -0.406000000    -4.611000000    -0.744000000
O    -1.580000000    -4.846000000    -0.132000000
C    -1.956000000    -3.817000000     0.800000000
H    -1.365000000    -2.940000000     0.498000000
C    -3.463000000    -3.425000000     0.728000000
C    -4.029000000    -2.615000000     1.714000000
H    -3.563000000    -2.457000000     2.683000000
C    -4.153000000    -3.517000000    -0.469000000
H    -3.695000000    -4.097000000    -1.267000000
C    -5.388000000    -2.901000000    -0.679000000
O    -6.077000000    -2.960000000    -1.925000000
C    -5.932000000    -2.122000000     0.364000000
H    -6.813000000    -1.504000000     0.213000000
C    -5.257000000    -1.973000000     1.541000000
O    -5.693000000    -1.046000000     2.466000000
C    -5.343000000    -0.971000000     3.804000000
C    -4.513000000     0.045000000     4.290000000
H    -3.976000000     0.704000000     3.613000000
C    -5.888000000    -1.801000000     4.752000000
H    -6.615000000    -2.590000000     4.576000000
C    -5.587000000    -1.684000000     6.084000000
H    -6.135000000    -2.318000000     6.775000000
C    -4.710000000    -0.688000000     6.530000000
H    -4.538000000    -0.529000000     7.592000000
C    -4.270000000     0.233000000     5.611000000
O    -3.539000000     1.321000000     5.968000000
C    -2.357000000     1.648000000     5.418000000
C    -2.216000000     3.006000000     5.037000000
H    -3.102000000     3.634000000     5.098000000
C    -1.086000000     3.473000000     4.446000000
O    -1.067000000     4.782000000     3.904000000
C     0.135000000     5.435000000     3.776000000
C     0.453000000     5.900000000     2.510000000
H    -0.324000000     5.895000000     1.750000000
C     1.146000000     5.300000000     4.765000000
H     0.889000000     4.775000000     5.681000000
C     2.376000000     5.907000000     4.535000000
H     3.109000000     5.679000000     5.305000000
C     2.624000000     6.481000000     3.251000000
H     3.559000000     6.915000000     2.904000000
C     1.667000000     6.472000000     2.266000000
O     1.976000000     6.812000000     0.990000000
C     2.067000000     5.820000000     0.025000000
C     1.173000000     5.941000000    -1.054000000
H     0.605000000     6.860000000    -1.179000000
C     1.089000000     4.921000000    -1.961000000
O     0.269000000     5.012000000    -3.093000000
C     0.542000000     4.710000000    -4.414000000
C    -0.111000000     3.641000000    -4.995000000
H    -0.840000000     3.130000000    -4.371000000
C     1.490000000     5.405000000    -5.094000000
H     1.919000000     6.280000000    -4.613000000
C     1.808000000     4.998000000    -6.387000000
H     2.583000000     5.566000000    -6.895000000
C     1.074000000     4.013000000    -7.057000000
H     1.348000000     3.683000000    -8.056000000
C     0.156000000     3.331000000    -6.334000000
O    -0.564000000     2.296000000    -6.992000000
C    -0.852000000     1.117000000    -6.339000000
C    -2.193000000     0.691000000    -6.292000000
H    -2.944000000     1.080000000    -6.975000000
C    -2.522000000    -0.440000000    -5.465000000
O    -3.778000000    -0.951000000    -5.540000000
C    -4.342000000    -2.044000000    -4.889000000
C    -4.029000000    -3.288000000    -5.446000000
H    -3.652000000    -3.334000000    -6.465000000
C    -4.439000000    -4.455000000    -4.826000000
H    -4.284000000    -5.450000000    -5.237000000
C    -5.069000000    -4.375000000    -3.606000000
H    -5.453000000    -5.268000000    -3.118000000
C    -5.409000000    -3.098000000    -3.092000000
C    -5.024000000    -1.925000000    -3.711000000
H    -5.379000000    -1.000000000    -3.263000000
O    -8.560000000     3.743000000     1.318000000
H    -8.473000000     3.902000000     0.378000000
H    -7.863000000     3.120000000     1.522000000
O    -6.863000000     1.518000000     1.704000000
H    -6.667000000     0.588000000     1.811000000
H    -6.250000000     1.817000000     1.032000000
O    -8.740000000    -1.427000000    -2.205000000
H    -7.983000000    -2.012000000    -2.176000000
H    -8.363000000    -0.550000000    -2.272000000
O    -3.065000000     4.979000000     1.790000000
H    -2.677000000     4.438000000     2.478000000
H    -2.538000000     4.791000000     1.013000000
O    -4.214000000     6.217000000     3.906000000
H    -4.032000000     5.766000000     3.081000000
H    -4.703000000     5.578000000     4.424000000
O    -8.485000000     1.208000000    -5.112000000
H    -8.907000000     2.059000000    -5.231000000
H    -7.637000000     1.415000000    -4.718000000
O    -3.512000000     4.317000000    -6.900000000
H    -3.984000000     3.486000000    -6.947000000
H    -3.260000000     4.397000000    -5.980000000
O    -8.535000000     3.550000000    -1.738000000
H    -7.669000000     3.553000000    -2.145000000
H    -9.070000000     3.008000000    -2.318000000
O    -6.822000000     3.865000000     3.703000000
H    -6.751000000     4.443000000     2.943000000
H    -7.760000000     3.696000000     3.789000000
O    -5.401000000     6.801000000    -3.312000000
H    -6.284000000     6.925000000    -3.661000000
H    -5.493000000     6.096000000    -2.672000000
O    -7.378000000     0.818000000    -1.503000000
H    -6.512000000     1.102000000    -1.209000000
H    -7.933000000     0.904000000    -0.728000000
O    -3.023000000     4.318000000    -3.860000000
H    -2.742000000     5.016000000    -3.269000000
H    -3.173000000     3.565000000    -3.288000000
O    -8.690000000     6.365000000    -1.521000000
H    -8.017000000     6.684000000    -0.919000000
H    -8.623000000     5.411000000    -1.472000000
O    -5.816000000     1.743000000    -3.781000000
H    -6.137000000     1.082000000    -3.168000000
H    -5.147000000     2.220000000    -3.291000000
O    -5.415000000     2.183000000    -6.468000000
H    -5.603000000     2.111000000    -5.533000000
H    -5.451000000     1.282000000    -6.790000000
O    -0.968000000     3.901000000     0.196000000
H    -0.843000000     4.490000000    -0.548000000
H    -1.146000000     3.048000000    -0.201000000
O    -1.738000000     7.020000000    -0.764000000
H    -2.459000000     7.586000000    -1.041000000
H    -1.606000000     7.234000000     0.159000000
O    -5.840000000     4.423000000    -1.518000000
H    -5.128000000     3.813000000    -1.711000000
H    -5.887000000     4.443000000    -0.562000000
O    -5.796000000     5.221000000     0.956000000
H    -4.896000000     5.495000000     1.133000000
H    -6.319000000     6.009000000     1.103000000
