201
-1254.40134
C     2.439000000     1.879000000     3.889000000
H     3.364000000     1.688000000     3.350000000
C     1.578000000     0.898000000     4.258000000
C     0.397000000     1.286000000     4.938000000
H    -0.366000000     0.566000000     5.221000000
C     1.751000000    -0.590000000     3.851000000
O     3.144000000    -0.903000000     3.750000000
H     1.341000000    -0.694000000     2.836000000
O     1.015000000    -1.503000000     4.682000000
C     0.372000000    -2.501000000     4.082000000
C    -1.017000000    -2.326000000     4.044000000
H    -1.380000000    -1.428000000     4.537000000
C    -1.813000000    -3.132000000     3.293000000
O    -3.085000000    -2.666000000     3.014000000
C    -1.198000000    -4.194000000     2.535000000
C    -1.960000000    -5.032000000     1.520000000
H    -1.555000000    -6.039000000     1.400000000
C    -2.102000000    -4.421000000     0.144000000
C    -1.219000000    -4.743000000    -0.856000000
H    -0.382000000    -5.428000000    -0.743000000
H    -2.957000000    -5.277000000     1.892000000
C     0.188000000    -4.395000000     2.588000000
H     0.664000000    -5.227000000     2.076000000
C     0.964000000    -3.498000000     3.289000000
C     2.497000000    -3.650000000     3.345000000
H     2.671000000    -4.723000000     3.244000000
H     2.885000000    -3.286000000     4.299000000
C     3.235000000    -2.827000000     2.274000000
C     3.502000000    -3.346000000     0.984000000
H     3.162000000    -4.353000000     0.755000000
C     3.504000000    -1.495000000     2.531000000
C     4.236000000    -0.756000000     1.587000000
H     4.593000000     0.242000000     1.827000000
C     4.426000000    -1.293000000     0.298000000
O     4.904000000    -0.389000000    -0.617000000
C     3.957000000     0.185000000    -1.554000000
C     4.211000000     1.647000000    -1.832000000
C     3.685000000     2.256000000    -2.946000000
H     3.136000000     1.686000000    -3.692000000
C     4.876000000     2.455000000    -0.926000000
H     5.302000000     2.063000000    -0.006000000
O     3.943000000    -0.542000000    -2.817000000
H     2.945000000     0.249000000    -1.129000000
C     4.096000000    -2.597000000     0.065000000
C     4.316000000    -3.154000000    -1.345000000
H     4.607000000    -4.206000000    -1.343000000
H     5.205000000    -2.713000000    -1.801000000
C     3.158000000    -2.812000000    -2.239000000
C     2.171000000    -3.789000000    -2.370000000
H     2.363000000    -4.732000000    -1.865000000
C     3.012000000    -1.585000000    -2.912000000
C     1.869000000    -1.381000000    -3.714000000
H     1.719000000    -0.513000000    -4.351000000
C     0.916000000    -2.348000000    -3.748000000
O    -0.163000000    -2.012000000    -4.503000000
C    -1.426000000    -1.548000000    -3.765000000
C    -2.068000000    -0.313000000    -4.412000000
C    -1.207000000     0.635000000    -4.987000000
H    -0.156000000     0.373000000    -5.075000000
C    -3.428000000    -0.141000000    -4.421000000
H    -3.985000000    -0.996000000    -4.045000000
O    -2.321000000    -2.657000000    -3.596000000
H    -1.168000000    -1.371000000    -2.710000000
C     0.987000000    -3.541000000    -3.033000000
C    -0.119000000    -4.600000000    -3.059000000
H     0.259000000    -5.595000000    -2.814000000
H    -0.535000000    -4.574000000    -4.068000000
C    -1.260000000    -4.242000000    -2.137000000
C    -2.304000000    -3.331000000    -2.409000000
C    -3.192000000    -3.038000000    -1.435000000
H    -3.885000000    -2.250000000    -1.717000000
C    -3.094000000    -3.550000000    -0.177000000
O    -3.880000000    -2.988000000     0.786000000
C    -3.316000000    -2.055000000     1.730000000
H    -2.332000000    -1.661000000     1.436000000
C    -4.110000000    -0.742000000     1.816000000
C    -4.460000000    -0.305000000     3.096000000
H    -4.196000000    -0.950000000     3.929000000
C    -4.563000000    -0.098000000     0.663000000
H    -4.248000000    -0.481000000    -0.304000000
C    -5.331000000     1.044000000     0.864000000
O    -5.784000000     1.693000000    -0.243000000
C    -5.590000000     1.600000000     2.133000000
H    -6.135000000     2.519000000     2.334000000
C    -5.187000000     0.832000000     3.243000000
O    -5.328000000     1.444000000     4.463000000
C    -4.294000000     1.451000000     5.384000000
C    -3.121000000     2.216000000     5.139000000
H    -3.013000000     2.754000000     4.200000000
C    -4.401000000     0.786000000     6.529000000
H    -5.255000000     0.139000000     6.710000000
C    -3.409000000     0.780000000     7.529000000
H    -3.489000000     0.149000000     8.410000000
C    -2.305000000     1.537000000     7.235000000
H    -1.478000000     1.581000000     7.939000000
C    -2.104000000     2.245000000     6.054000000
O    -0.963000000     3.070000000     5.949000000
C     0.238000000     2.609000000     5.312000000
C     1.140000000     3.581000000     4.905000000
H     0.945000000     4.623000000     5.141000000
C     2.245000000     3.222000000     4.187000000
O     3.016000000     4.210000000     3.726000000
C     4.263000000     4.132000000     3.158000000
C     4.383000000     4.568000000     1.801000000
H     3.523000000     5.071000000     1.366000000
C     5.433000000     3.707000000     3.822000000
H     5.320000000     3.542000000     4.890000000
C     6.606000000     3.498000000     3.072000000
H     7.478000000     3.030000000     3.523000000
C     6.699000000     3.851000000     1.762000000
H     7.659000000     3.729000000     1.267000000
C     5.614000000     4.404000000     1.147000000
O     5.652000000     4.553000000    -0.219000000
C     5.018000000     3.813000000    -1.092000000
C     4.465000000     4.415000000    -2.240000000
H     4.564000000     5.476000000    -2.455000000
C     3.716000000     3.645000000    -3.132000000
O     3.117000000     4.307000000    -4.209000000
C     2.491000000     3.699000000    -5.259000000
C     1.132000000     3.414000000    -5.140000000
H     0.539000000     3.629000000    -4.255000000
C     3.209000000     3.364000000    -6.403000000
H     4.256000000     3.657000000    -6.445000000
C     2.563000000     2.774000000    -7.480000000
H     3.025000000     2.506000000    -8.427000000
C     1.202000000     2.525000000    -7.395000000
H     0.736000000     2.076000000    -8.269000000
C     0.481000000     2.770000000    -6.192000000
O    -0.918000000     2.705000000    -6.266000000
C    -1.690000000     1.745000000    -5.579000000
C    -3.110000000     1.948000000    -5.556000000
H    -3.534000000     2.824000000    -6.040000000
C    -3.949000000     1.011000000    -4.897000000
O    -5.331000000     1.173000000    -4.947000000
C    -6.020000000     0.903000000    -3.765000000
C    -6.990000000    -0.117000000    -3.748000000
H    -7.228000000    -0.631000000    -4.676000000
C    -7.575000000    -0.482000000    -2.504000000
H    -8.426000000    -1.156000000    -2.443000000
C    -7.141000000     0.153000000    -1.335000000
H    -7.609000000    -0.053000000    -0.377000000
C    -6.224000000     1.159000000    -1.366000000
C    -5.753000000     1.583000000    -2.592000000
H    -5.104000000     2.455000000    -2.571000000
O    -1.277000000     4.787000000    -2.960000000
H    -1.833000000     4.516000000    -2.229000000
H    -0.554000000     5.260000000    -2.548000000
O    -4.663000000     9.117000000     0.527000000
H    -5.323000000     8.876000000    -0.123000000
H    -3.828000000     8.912000000     0.107000000
O    -0.519000000     6.966000000     0.455000000
H     0.052000000     6.362000000    -0.021000000
H    -1.402000000     6.744000000     0.160000000
O    -2.864000000     6.639000000    -0.425000000
H    -3.238000000     5.757000000    -0.435000000
H    -3.394000000     7.130000000    -1.053000000
O    -4.486000000     5.119000000    -3.527000000
H    -4.519000000     5.997000000    -3.147000000
H    -3.899000000     4.630000000    -2.949000000
O    -4.778000000     4.792000000     4.791000000
H    -5.609000000     4.901000000     4.327000000
H    -5.025000000     4.435000000     5.644000000
O     1.490000000     2.896000000    -0.081000000
H     0.724000000     2.401000000    -0.373000000
H     1.557000000     2.705000000     0.854000000
O    -7.937000000     3.898000000    -0.280000000
H    -7.507000000     4.731000000    -0.085000000
H    -7.225000000     3.322000000    -0.559000000
O     0.199000000     6.526000000     3.115000000
H    -0.600000000     6.001000000     3.170000000
H     0.388000000     6.575000000     2.178000000
O    -7.164000000     4.760000000    -4.751000000
H    -7.620000000     5.021000000    -3.951000000
H    -6.274000000     4.555000000    -4.464000000
O    -7.127000000     5.472000000     2.506000000
H    -6.536000000     5.413000000     1.755000000
H    -6.717000000     6.117000000     3.083000000
O    -5.660000000     5.573000000     0.255000000
H    -4.834000000     5.090000000     0.249000000
H    -5.424000000     6.455000000    -0.033000000
O     1.243000000     5.418000000    -1.168000000
H     1.562000000     4.574000000    -0.848000000
H     1.989000000     6.009000000    -1.068000000
O    -4.276000000     7.586000000    -2.397000000
H    -3.778000000     8.067000000    -3.058000000
H    -5.144000000     7.988000000    -2.410000000
O    -2.539000000     5.508000000    -5.444000000
H    -1.891000000     5.241000000    -4.792000000
H    -3.378000000     5.238000000    -5.072000000
O    -1.059000000     9.098000000     2.768000000
H    -0.993000000     8.148000000     2.677000000
H    -0.909000000     9.260000000     3.700000000
O    -3.905000000     8.728000000     3.172000000
H    -4.024000000     8.185000000     2.393000000
H    -3.375000000     9.466000000     2.872000000
O    -0.120000000     9.592000000    -0.030000000
H    -0.496000000    10.003000000     0.749000000
H    -0.425000000     8.686000000     0.007000000
O    -2.371000000     5.228000000     3.049000000
H    -3.065000000     5.157000000     3.703000000
H    -2.768000000     4.902000000     2.241000000
