201
-1220.43433
C     1.911000000     2.636000000     4.055000000
H     2.924000000     2.402000000     3.737000000
C     1.048000000     1.581000000     4.257000000
C    -0.170000000     1.917000000     4.877000000
H    -0.783000000     1.094000000     5.238000000
C     1.454000000     0.102000000     3.867000000
O     2.866000000    -0.027000000     3.963000000
H     1.065000000    -0.112000000     2.861000000
O     0.861000000    -0.878000000     4.670000000
C     0.371000000    -2.021000000     4.110000000
C    -0.976000000    -2.054000000     3.800000000
H    -1.643000000    -1.250000000     4.098000000
C    -1.559000000    -3.096000000     3.108000000
O    -2.860000000    -2.895000000     2.716000000
C    -0.795000000    -4.087000000     2.624000000
C    -1.368000000    -5.116000000     1.681000000
H    -0.769000000    -6.028000000     1.714000000
C    -1.507000000    -4.634000000     0.192000000
C    -0.465000000    -4.957000000    -0.642000000
H     0.287000000    -5.689000000    -0.358000000
H    -2.342000000    -5.444000000     2.050000000
C     0.592000000    -4.070000000     2.900000000
H     1.276000000    -4.766000000     2.421000000
C     1.170000000    -3.099000000     3.683000000
C     2.647000000    -3.068000000     3.924000000
H     3.110000000    -4.056000000     3.872000000
H     2.851000000    -2.644000000     4.909000000
C     3.391000000    -2.195000000     2.910000000
C     3.960000000    -2.874000000     1.812000000
H     3.981000000    -3.960000000     1.832000000
C     3.493000000    -0.792000000     2.988000000
C     4.071000000    -0.118000000     1.995000000
H     3.955000000     0.960000000     2.073000000
C     4.551000000    -0.763000000     0.900000000
O     4.865000000     0.117000000    -0.126000000
C     3.941000000     0.425000000    -1.182000000
C     4.002000000     1.959000000    -1.454000000
C     3.394000000     2.443000000    -2.614000000
H     2.826000000     1.789000000    -3.270000000
C     4.621000000     2.840000000    -0.535000000
H     4.976000000     2.535000000     0.446000000
O     4.312000000    -0.425000000    -2.225000000
H     2.981000000     0.156000000    -0.718000000
C     4.476000000    -2.126000000     0.752000000
C     4.766000000    -2.896000000    -0.515000000
H     4.834000000    -3.949000000    -0.233000000
H     5.782000000    -2.619000000    -0.805000000
C     3.678000000    -2.791000000    -1.627000000
C     2.723000000    -3.797000000    -1.755000000
H     2.814000000    -4.673000000    -1.118000000
C     3.512000000    -1.585000000    -2.412000000
C     2.489000000    -1.498000000    -3.377000000
H     2.267000000    -0.556000000    -3.872000000
C     1.677000000    -2.561000000    -3.572000000
O     0.672000000    -2.271000000    -4.419000000
C    -0.681000000    -1.976000000    -3.922000000
C    -1.463000000    -0.917000000    -4.745000000
C    -0.799000000     0.168000000    -5.325000000
H     0.248000000     0.266000000    -5.049000000
C    -2.884000000    -0.998000000    -4.854000000
H    -3.445000000    -1.740000000    -4.291000000
O    -1.446000000    -3.172000000    -3.718000000
H    -0.559000000    -1.567000000    -2.908000000
C     1.716000000    -3.706000000    -2.782000000
C     0.692000000    -4.890000000    -2.924000000
H     1.219000000    -5.783000000    -2.584000000
H     0.431000000    -5.096000000    -3.965000000
C    -0.482000000    -4.555000000    -1.976000000
C    -1.541000000    -3.724000000    -2.457000000
C    -2.608000000    -3.434000000    -1.660000000
H    -3.492000000    -2.948000000    -2.065000000
C    -2.598000000    -3.929000000    -0.362000000
O    -3.558000000    -3.442000000     0.415000000
C    -3.189000000    -2.410000000     1.349000000
H    -2.260000000    -2.008000000     0.918000000
C    -4.181000000    -1.234000000     1.344000000
C    -4.651000000    -0.582000000     2.535000000
H    -4.222000000    -0.922000000     3.475000000
C    -4.734000000    -0.720000000     0.162000000
H    -4.527000000    -1.192000000    -0.795000000
C    -5.753000000     0.257000000     0.150000000
O    -6.259000000     0.844000000    -1.003000000
C    -6.000000000     0.931000000     1.366000000
H    -6.731000000     1.735000000     1.362000000
C    -5.434000000     0.499000000     2.552000000
O    -5.759000000     1.091000000     3.720000000
C    -4.877000000     1.397000000     4.729000000
C    -3.680000000     2.150000000     4.545000000
H    -3.417000000     2.662000000     3.623000000
C    -5.182000000     1.051000000     6.082000000
H    -6.056000000     0.437000000     6.281000000
C    -4.335000000     1.340000000     7.110000000
H    -4.489000000     0.948000000     8.112000000
C    -3.160000000     2.130000000     6.831000000
H    -2.497000000     2.362000000     7.661000000
C    -2.898000000     2.606000000     5.615000000
O    -1.857000000     3.487000000     5.489000000
C    -0.605000000     3.218000000     5.066000000
C     0.275000000     4.284000000     4.761000000
H     0.000000000     5.300000000     5.035000000
C     1.518000000     3.970000000     4.246000000
O     2.452000000     5.014000000     4.099000000
C     3.711000000     4.917000000     3.468000000
C     3.782000000     5.024000000     2.058000000
H     2.859000000     5.114000000     1.492000000
C     4.854000000     4.610000000     4.252000000
H     4.723000000     4.577000000     5.331000000
C     6.038000000     4.378000000     3.571000000
H     6.922000000     4.094000000     4.136000000
C     6.198000000     4.548000000     2.200000000
H     7.169000000     4.358000000     1.751000000
C     5.013000000     4.830000000     1.441000000
O     5.170000000     5.054000000     0.083000000
C     4.688000000     4.201000000    -0.871000000
C     4.084000000     4.673000000    -2.016000000
H     4.159000000     5.738000000    -2.220000000
C     3.590000000     3.776000000    -2.957000000
O     2.840000000     4.308000000    -4.016000000
C     2.408000000     3.593000000    -5.104000000
C     1.053000000     3.337000000    -5.144000000
H     0.330000000     3.776000000    -4.461000000
C     3.248000000     3.156000000    -6.169000000
H     4.289000000     3.469000000    -6.164000000
C     2.697000000     2.427000000    -7.247000000
H     3.299000000     2.159000000    -8.112000000
C     1.321000000     2.172000000    -7.200000000
H     0.839000000     1.717000000    -8.062000000
C     0.476000000     2.692000000    -6.216000000
O    -0.848000000     2.510000000    -6.089000000
C    -1.470000000     1.271000000    -5.786000000
C    -2.852000000     1.187000000    -5.850000000
H    -3.417000000     2.093000000    -6.052000000
C    -3.537000000     0.057000000    -5.473000000
O    -4.908000000     0.022000000    -5.538000000
C    -5.676000000    -0.328000000    -4.443000000
C    -6.698000000    -1.273000000    -4.655000000
H    -6.898000000    -1.674000000    -5.645000000
C    -7.497000000    -1.593000000    -3.564000000
H    -8.277000000    -2.348000000    -3.620000000
C    -7.356000000    -0.910000000    -2.394000000
H    -8.088000000    -1.013000000    -1.597000000
C    -6.390000000     0.106000000    -2.209000000
C    -5.536000000     0.401000000    -3.202000000
H    -4.726000000     1.118000000    -3.096000000
O     1.368000000     5.962000000    -0.829000000
H     0.953000000     6.574000000    -0.220000000
H     1.229000000     5.101000000    -0.435000000
O    -7.776000000     3.884000000    -3.462000000
H    -6.881000000     3.630000000    -3.687000000
H    -7.783000000     4.837000000    -3.547000000
O    -3.248000000     9.668000000    -0.453000000
H    -3.584000000    10.443000000    -0.904000000
H    -3.083000000     9.036000000    -1.153000000
O    -3.965000000     6.645000000    -1.237000000
H    -4.835000000     6.911000000    -0.938000000
H    -3.955000000     5.694000000    -1.128000000
O    -5.740000000     6.130000000     4.858000000
H    -5.929000000     6.223000000     3.925000000
H    -5.799000000     7.020000000     5.205000000
O     1.118000000     7.627000000     1.342000000
H     0.507000000     8.341000000     1.521000000
H     1.663000000     7.574000000     2.127000000
O    -2.373000000     8.272000000    -3.057000000
H    -2.817000000     7.630000000    -2.504000000
H    -1.507000000     7.896000000    -3.214000000
O    -6.435000000     3.815000000     0.292000000
H    -5.571000000     3.959000000     0.678000000
H    -6.255000000     3.380000000    -0.541000000
O     0.784000000     3.773000000     0.248000000
H     0.523000000     3.825000000     1.168000000
H     0.226000000     3.088000000    -0.120000000
O    -0.873000000     5.100000000    -2.732000000
H    -0.096000000     5.143000000    -2.176000000
H    -1.494000000     4.566000000    -2.236000000
O    -2.689000000     7.547000000     3.729000000
H    -3.132000000     8.382000000     3.574000000
H    -2.827000000     7.050000000     2.923000000
O    -9.068000000     3.943000000     0.748000000
H    -8.146000000     3.968000000     0.492000000
H    -9.548000000     4.043000000    -0.075000000
O    -3.611000000     8.379000000    -5.611000000
H    -3.230000000     8.041000000    -4.800000000
H    -3.151000000     7.908000000    -6.306000000
O    -6.471000000     5.384000000    -5.879000000
H    -5.824000000     5.179000000    -5.203000000
H    -7.218000000     5.737000000    -5.397000000
O    -4.995000000     4.116000000    -3.164000000
H    -4.362000000     4.046000000    -3.878000000
H    -4.479000000     3.968000000    -2.371000000
O    -3.135000000     4.683000000    -5.069000000
H    -2.446000000     4.753000000    -4.408000000
H    -2.760000000     5.094000000    -5.848000000
O    -7.359000000     6.624000000    -0.398000000
H    -8.300000000     6.464000000    -0.322000000
H    -7.100000000     6.155000000    -1.191000000
O    -1.068000000     4.212000000     2.155000000
H    -1.618000000     4.947000000     1.885000000
H    -1.447000000     3.922000000     2.985000000
O    -3.283000000     6.012000000     1.601000000
H    -3.535000000     6.458000000     0.792000000
H    -3.336000000     5.080000000     1.387000000
