201
-1235.43694
C     3.349000000     1.517000000     3.857000000
H     4.040000000     1.112000000     3.122000000
C     2.255000000     0.820000000     4.389000000
C     1.341000000     1.468000000     5.252000000
H     0.418000000     0.925000000     5.438000000
C     2.030000000    -0.598000000     3.809000000
O     3.252000000    -1.292000000     3.608000000
H     1.537000000    -0.422000000     2.842000000
O     1.179000000    -1.441000000     4.672000000
C     0.132000000    -2.067000000     4.034000000
C    -1.200000000    -1.598000000     4.124000000
H    -1.398000000    -0.686000000     4.682000000
C    -2.190000000    -2.276000000     3.520000000
O    -3.428000000    -1.584000000     3.443000000
C    -1.933000000    -3.498000000     2.955000000
C    -3.061000000    -4.256000000     2.248000000
H    -2.846000000    -5.326000000     2.291000000
C    -3.126000000    -3.914000000     0.762000000
C    -2.388000000    -4.617000000    -0.159000000
H    -1.851000000    -5.478000000     0.232000000
H    -4.029000000    -4.077000000     2.721000000
C    -0.633000000    -3.930000000     2.862000000
H    -0.365000000    -4.847000000     2.343000000
C     0.405000000    -3.217000000     3.386000000
C     1.800000000    -3.825000000     3.415000000
H     1.752000000    -4.903000000     3.252000000
H     2.188000000    -3.701000000     4.428000000
C     2.651000000    -3.203000000     2.296000000
C     2.831000000    -3.960000000     1.118000000
H     2.221000000    -4.859000000     1.074000000
C     3.265000000    -1.992000000     2.430000000
C     3.998000000    -1.457000000     1.400000000
H     4.465000000    -0.478000000     1.482000000
C     4.183000000    -2.229000000     0.245000000
O     4.718000000    -1.494000000    -0.828000000
C     3.844000000    -1.047000000    -1.877000000
C     4.205000000     0.318000000    -2.368000000
C     4.227000000     0.640000000    -3.779000000
H     4.027000000    -0.152000000    -4.497000000
C     4.480000000     1.346000000    -1.512000000
H     4.360000000     1.064000000    -0.470000000
O     3.609000000    -2.013000000    -2.917000000
H     2.895000000    -0.921000000    -1.336000000
C     3.564000000    -3.501000000     0.036000000
C     3.536000000    -4.318000000    -1.298000000
H     3.463000000    -5.358000000    -0.974000000
H     4.522000000    -4.315000000    -1.768000000
C     2.407000000    -3.942000000    -2.236000000
C     1.152000000    -4.623000000    -2.145000000
H     1.012000000    -5.524000000    -1.554000000
C     2.466000000    -2.761000000    -2.928000000
C     1.371000000    -2.237000000    -3.544000000
H     1.474000000    -1.291000000    -4.070000000
C     0.176000000    -2.898000000    -3.489000000
O    -0.909000000    -2.253000000    -4.149000000
C    -1.886000000    -1.485000000    -3.425000000
C    -2.249000000    -0.178000000    -4.060000000
C    -1.243000000     0.510000000    -4.847000000
H    -0.248000000     0.091000000    -4.976000000
C    -3.496000000     0.481000000    -3.864000000
H    -4.248000000     0.074000000    -3.193000000
O    -3.007000000    -2.409000000    -3.199000000
H    -1.434000000    -1.299000000    -2.439000000
C     0.008000000    -4.072000000    -2.730000000
C    -1.341000000    -4.755000000    -2.514000000
H    -1.286000000    -5.793000000    -2.179000000
H    -1.816000000    -4.869000000    -3.490000000
C    -2.255000000    -4.033000000    -1.494000000
C    -3.086000000    -2.968000000    -1.895000000
C    -3.815000000    -2.307000000    -0.917000000
H    -4.369000000    -1.393000000    -1.118000000
C    -3.812000000    -2.763000000     0.417000000
O    -4.542000000    -1.924000000     1.277000000
C    -3.854000000    -1.023000000     2.224000000
H    -2.900000000    -0.842000000     1.707000000
C    -4.415000000     0.402000000     2.375000000
C    -3.556000000     1.336000000     2.926000000
H    -2.611000000     1.037000000     3.371000000
C    -5.462000000     0.907000000     1.558000000
H    -6.070000000     0.190000000     1.013000000
C    -5.680000000     2.255000000     1.348000000
O    -6.680000000     2.646000000     0.508000000
C    -4.820000000     3.201000000     2.017000000
H    -4.908000000     4.272000000     1.854000000
C    -3.753000000     2.727000000     2.776000000
O    -2.961000000     3.620000000     3.409000000
C    -2.439000000     3.409000000     4.727000000
C    -1.110000000     3.381000000     4.931000000
H    -0.432000000     3.263000000     4.090000000
C    -3.392000000     3.444000000     5.801000000
H    -4.426000000     3.687000000     5.569000000
C    -2.907000000     3.316000000     7.099000000
H    -3.569000000     3.409000000     7.956000000
C    -1.524000000     3.350000000     7.310000000
H    -1.078000000     3.414000000     8.298000000
C    -0.665000000     3.408000000     6.220000000
O     0.701000000     3.431000000     6.413000000
C     1.589000000     2.786000000     5.605000000
C     2.799000000     3.399000000     5.230000000
H     3.052000000     4.404000000     5.558000000
C     3.657000000     2.786000000     4.365000000
O     4.747000000     3.416000000     3.972000000
C     5.391000000     3.167000000     2.812000000
C     4.822000000     3.530000000     1.572000000
H     3.880000000     4.071000000     1.545000000
C     6.557000000     2.387000000     2.870000000
H     6.994000000     2.101000000     3.823000000
C     7.237000000     2.111000000     1.758000000
H     8.050000000     1.393000000     1.827000000
C     6.695000000     2.452000000     0.516000000
H     7.325000000     2.143000000    -0.314000000
C     5.500000000     3.176000000     0.391000000
O     5.053000000     3.507000000    -0.864000000
C     4.787000000     2.627000000    -1.855000000
C     4.741000000     2.931000000    -3.201000000
H     4.813000000     3.965000000    -3.528000000
C     4.420000000     1.955000000    -4.159000000
O     4.295000000     2.292000000    -5.459000000
C     3.136000000     1.913000000    -6.211000000
C     1.935000000     2.353000000    -5.658000000
H     1.949000000     3.032000000    -4.809000000
C     3.260000000     1.093000000    -7.380000000
H     4.206000000     0.782000000    -7.817000000
C     2.043000000     0.696000000    -8.030000000
H     1.997000000    -0.034000000    -8.834000000
C     0.837000000     1.180000000    -7.416000000
H    -0.052000000     0.931000000    -7.990000000
C     0.790000000     2.043000000    -6.386000000
O    -0.457000000     2.507000000    -5.974000000
C    -1.458000000     1.760000000    -5.389000000
C    -2.739000000     2.373000000    -5.181000000
H    -2.869000000     3.364000000    -5.607000000
C    -3.612000000     1.799000000    -4.299000000
O    -4.711000000     2.583000000    -3.868000000
C    -5.732000000     2.142000000    -3.040000000
C    -6.794000000     1.375000000    -3.477000000
H    -6.887000000     0.959000000    -4.477000000
C    -7.773000000     1.073000000    -2.550000000
H    -8.582000000     0.473000000    -2.959000000
C    -7.740000000     1.462000000    -1.237000000
H    -8.539000000     1.225000000    -0.539000000
C    -6.759000000     2.294000000    -0.811000000
C    -5.767000000     2.676000000    -1.736000000
H    -4.931000000     3.323000000    -1.484000000
O    -0.816000000     7.676000000    -2.385000000
H    -0.689000000     6.810000000    -1.997000000
H    -0.968000000     8.254000000    -1.637000000
O     1.327000000     3.705000000     1.657000000
H     1.006000000     2.961000000     1.147000000
H     1.872000000     4.199000000     1.044000000
O    -3.798000000     9.088000000    -2.626000000
H    -2.985000000     9.483000000    -2.942000000
H    -3.767000000     8.187000000    -2.948000000
O    -3.619000000     6.203000000     0.241000000
H    -2.790000000     5.923000000    -0.149000000
H    -4.178000000     6.409000000    -0.508000000
O    -3.645000000     5.632000000    -4.184000000
H    -4.219000000     4.923000000    -3.892000000
H    -4.237000000     6.364000000    -4.353000000
O     2.313000000     4.833000000    -0.678000000
H     1.565000000     5.130000000    -1.197000000
H     3.078000000     5.068000000    -1.203000000
O    -0.571000000     6.060000000    -7.555000000
H    -0.793000000     5.879000000    -6.642000000
H    -1.032000000     5.385000000    -8.052000000
O     2.856000000     6.321000000     2.818000000
H     2.445000000     5.467000000     2.680000000
H     3.213000000     6.275000000     3.705000000
O    -4.076000000     8.699000000     1.607000000
H    -4.032000000     7.886000000     1.104000000
H    -3.405000000     8.599000000     2.282000000
O    -5.869000000     6.549000000    -1.964000000
H    -5.913000000     7.503000000    -1.891000000
H    -6.315000000     6.352000000    -2.788000000
O     1.910000000     7.049000000    -3.514000000
H     2.171000000     7.675000000    -2.840000000
H     1.273000000     6.482000000    -3.080000000
O    -2.475000000     6.538000000     3.169000000
H    -3.091000000     5.956000000     3.615000000
H    -2.136000000     6.016000000     2.441000000
O     3.933000000     7.256000000     0.641000000
H     3.253000000     7.907000000     0.468000000
H     3.647000000     6.820000000     1.444000000
O     2.211000000     5.594000000    -5.816000000
H     1.329000000     5.230000000    -5.899000000
H     2.168000000     6.151000000    -5.039000000
O     1.963000000     9.153000000    -1.715000000
H     1.247000000     9.643000000    -2.120000000
H     1.643000000     8.946000000    -0.837000000
O    -0.730000000     8.610000000    -5.022000000
H    -0.520000000     7.848000000    -5.561000000
H    -0.775000000     8.267000000    -4.130000000
O    -0.985000000     5.474000000    -4.989000000
H    -0.368000000     5.249000000    -4.293000000
H    -1.847000000     5.389000000    -4.583000000
O     1.125000000     8.223000000     0.539000000
H     0.725000000     7.413000000     0.854000000
H     0.898000000     8.876000000     1.201000000
O    -0.070000000     5.956000000     1.207000000
H    -0.670000000     5.698000000     0.506000000
H     0.115000000     5.142000000     1.675000000
