201
-1211.26289
C     2.369000000     1.440000000     3.187000000
H     2.993000000     1.091000000     2.368000000
C     1.629000000     0.533000000     3.942000000
C     0.938000000     1.040000000     5.020000000
H     0.360000000     0.377000000     5.659000000
C     1.671000000    -0.943000000     3.532000000
O     2.943000000    -1.476000000     3.421000000
H     1.277000000    -1.168000000     2.530000000
O     0.936000000    -1.761000000     4.384000000
C    -0.025000000    -2.613000000     3.847000000
C    -1.319000000    -2.163000000     3.858000000
H    -1.494000000    -1.234000000     4.396000000
C    -2.201000000    -2.895000000     3.079000000
O    -3.514000000    -2.411000000     3.101000000
C    -1.893000000    -4.019000000     2.338000000
C    -2.878000000    -4.768000000     1.364000000
H    -2.571000000    -5.796000000     1.163000000
C    -2.938000000    -3.981000000     0.043000000
C    -2.092000000    -4.367000000    -1.011000000
H    -1.484000000    -5.267000000    -0.962000000
H    -3.888000000    -4.743000000     1.778000000
C    -0.624000000    -4.498000000     2.464000000
H    -0.327000000    -5.371000000     1.889000000
C     0.349000000    -3.726000000     3.146000000
C     1.863000000    -4.152000000     3.132000000
H     1.952000000    -5.224000000     2.943000000
H     2.397000000    -3.999000000     4.072000000
C     2.656000000    -3.438000000     2.024000000
C     2.842000000    -4.018000000     0.733000000
H     2.431000000    -4.993000000     0.486000000
C     3.289000000    -2.221000000     2.257000000
C     4.018000000    -1.571000000     1.295000000
H     4.454000000    -0.610000000     1.557000000
C     4.160000000    -2.107000000     0.037000000
O     4.831000000    -1.425000000    -0.991000000
C     4.072000000    -0.767000000    -1.986000000
C     4.510000000     0.652000000    -2.323000000
C     3.855000000     1.502000000    -3.217000000
H     3.140000000     1.006000000    -3.869000000
C     5.394000000     1.250000000    -1.415000000
H     5.783000000     0.720000000    -0.550000000
O     3.822000000    -1.684000000    -3.078000000
H     3.124000000    -0.517000000    -1.487000000
C     3.523000000    -3.332000000    -0.263000000
C     3.497000000    -4.054000000    -1.686000000
H     3.307000000    -5.125000000    -1.594000000
H     4.454000000    -4.083000000    -2.211000000
C     2.405000000    -3.552000000    -2.515000000
C     1.122000000    -4.177000000    -2.571000000
H     0.874000000    -5.098000000    -2.049000000
C     2.638000000    -2.339000000    -3.236000000
C     1.585000000    -1.668000000    -3.910000000
H     1.695000000    -0.658000000    -4.295000000
C     0.354000000    -2.318000000    -3.960000000
O    -0.732000000    -1.632000000    -4.399000000
C    -1.538000000    -0.848000000    -3.517000000
C    -1.782000000     0.538000000    -4.084000000
C    -1.002000000     1.105000000    -5.158000000
H    -0.244000000     0.445000000    -5.571000000
C    -2.849000000     1.265000000    -3.513000000
H    -3.484000000     0.846000000    -2.736000000
O    -2.839000000    -1.509000000    -3.287000000
H    -0.987000000    -0.677000000    -2.581000000
C     0.098000000    -3.534000000    -3.371000000
C    -1.283000000    -4.173000000    -3.400000000
H    -1.271000000    -5.262000000    -3.319000000
H    -1.906000000    -4.102000000    -4.294000000
C    -2.092000000    -3.646000000    -2.180000000
C    -2.901000000    -2.439000000    -2.254000000
C    -3.720000000    -2.027000000    -1.228000000
H    -4.422000000    -1.219000000    -1.421000000
C    -3.833000000    -2.956000000    -0.138000000
O    -4.549000000    -2.436000000     0.883000000
C    -3.837000000    -1.636000000     1.921000000
H    -2.885000000    -1.174000000     1.623000000
C    -4.595000000    -0.421000000     2.320000000
C    -4.302000000     0.187000000     3.544000000
H    -3.727000000    -0.393000000     4.261000000
C    -5.426000000     0.284000000     1.377000000
H    -5.498000000    -0.174000000     0.394000000
C    -5.718000000     1.595000000     1.580000000
O    -6.498000000     2.204000000     0.679000000
C    -5.413000000     2.169000000     2.792000000
H    -5.687000000     3.193000000     3.034000000
C    -4.630000000     1.469000000     3.740000000
O    -4.331000000     2.181000000     4.901000000
C    -3.384000000     1.915000000     5.898000000
C    -2.072000000     2.323000000     5.604000000
H    -1.788000000     2.801000000     4.670000000
C    -3.740000000     1.459000000     7.141000000
H    -4.804000000     1.336000000     7.325000000
C    -2.765000000     1.263000000     8.174000000
H    -2.923000000     0.903000000     9.188000000
C    -1.481000000     1.835000000     7.888000000
H    -0.758000000     1.984000000     8.687000000
C    -1.138000000     2.283000000     6.635000000
O     0.163000000     2.805000000     6.376000000
C     0.884000000     2.360000000     5.282000000
C     1.744000000     3.264000000     4.601000000
H     1.893000000     4.311000000     4.853000000
C     2.402000000     2.836000000     3.496000000
O     3.301000000     3.688000000     2.818000000
C     4.568000000     3.350000000     2.485000000
C     4.946000000     3.503000000     1.191000000
H     4.307000000     3.941000000     0.428000000
C     5.463000000     2.749000000     3.452000000
H     5.116000000     2.705000000     4.481000000
C     6.756000000     2.372000000     3.049000000
H     7.466000000     2.059000000     3.810000000
C     7.120000000     2.550000000     1.656000000
H     8.116000000     2.254000000     1.337000000
C     6.236000000     3.142000000     0.762000000
O     6.571000000     3.102000000    -0.561000000
C     5.644000000     2.597000000    -1.415000000
C     5.169000000     3.367000000    -2.477000000
H     5.503000000     4.388000000    -2.646000000
C     4.240000000     2.830000000    -3.362000000
O     3.674000000     3.628000000    -4.312000000
C     2.986000000     3.142000000    -5.426000000
C     1.595000000     3.261000000    -5.372000000
H     1.073000000     3.694000000    -4.522000000
C     3.592000000     2.509000000    -6.482000000
H     4.667000000     2.440000000    -6.622000000
C     2.880000000     1.987000000    -7.569000000
H     3.399000000     1.555000000    -8.420000000
C     1.464000000     2.242000000    -7.644000000
H     0.896000000     2.041000000    -8.549000000
C     0.846000000     2.909000000    -6.540000000
O    -0.519000000     3.048000000    -6.527000000
C    -1.232000000     2.437000000    -5.531000000
C    -2.258000000     3.173000000    -4.869000000
H    -2.467000000     4.205000000    -5.137000000
C    -3.121000000     2.544000000    -3.940000000
O    -4.207000000     3.214000000    -3.472000000
C    -5.215000000     2.597000000    -2.685000000
C    -6.201000000     2.020000000    -3.481000000
H    -6.130000000     2.278000000    -4.534000000
C    -7.247000000     1.387000000    -2.895000000
H    -8.030000000     0.982000000    -3.531000000
C    -7.402000000     1.453000000    -1.480000000
H    -8.192000000     0.897000000    -0.981000000
C    -6.362000000     2.011000000    -0.706000000
C    -5.229000000     2.548000000    -1.304000000
H    -4.354000000     2.953000000    -0.802000000
O     0.358000000     9.289000000    -0.509000000
H     0.943000000     8.761000000    -1.053000000
H    -0.482000000     8.831000000    -0.547000000
O    -5.770000000     8.506000000     0.119000000
H    -5.385000000     7.696000000     0.455000000
H    -5.457000000     8.563000000    -0.784000000
O     0.303000000     4.785000000     1.623000000
H     0.561000000     3.864000000     1.572000000
H    -0.616000000     4.792000000     1.354000000
O    -7.273000000     5.627000000    -0.297000000
H    -6.459000000     5.775000000     0.184000000
H    -7.750000000     6.454000000    -0.221000000
O     0.311000000     5.350000000    -2.301000000
H    -0.505000000     5.316000000    -1.800000000
H     0.929000000     5.793000000    -1.720000000
O    -6.271000000     7.189000000    -3.324000000
H    -6.184000000     8.108000000    -3.578000000
H    -5.652000000     7.080000000    -2.602000000
O    -6.028000000     5.331000000     5.143000000
H    -5.136000000     5.018000000     4.993000000
H    -6.333000000     4.830000000     5.900000000
O    -3.437000000     5.202000000     3.595000000
H    -2.572000000     5.433000000     3.934000000
H    -3.264000000     4.826000000     2.732000000
O    -3.616000000     9.125000000     4.016000000
H    -3.087000000     8.702000000     3.340000000
H    -4.478000000     8.716000000     3.937000000
O    -4.848000000     6.200000000     1.162000000
H    -4.360000000     5.379000000     1.106000000
H    -4.904000000     6.382000000     2.101000000
O    -5.701000000     4.936000000    -5.676000000
H    -5.398000000     5.250000000    -4.825000000
H    -5.232000000     5.477000000    -6.312000000
O    -8.961000000     2.618000000     1.813000000
H    -8.046000000     2.596000000     1.534000000
H    -9.351000000     1.838000000     1.420000000
O    -2.430000000     9.092000000    -1.491000000
H    -2.160000000     9.114000000    -2.409000000
H    -3.306000000     9.476000000    -1.490000000
O    -0.976000000     8.609000000     2.810000000
H    -1.173000000     8.107000000     2.019000000
H    -0.964000000     9.520000000     2.519000000
O     2.338000000     6.866000000     2.187000000
H     1.753000000     6.118000000     2.068000000
H     3.016000000     6.749000000     1.522000000
O    -3.799000000     6.010000000    -2.255000000
H    -2.909000000     5.931000000    -1.912000000
H    -4.300000000     5.352000000    -1.773000000
O    -1.818000000     7.204000000     0.645000000
H    -2.003000000     6.277000000     0.499000000
H    -2.321000000     7.659000000    -0.031000000
O    -2.961000000     6.777000000    -4.868000000
H    -3.217000000     6.203000000    -4.145000000
H    -3.123000000     7.661000000    -4.541000000
O    -1.080000000     6.378000000     4.510000000
H    -0.276000000     5.956000000     4.208000000
H    -1.104000000     7.212000000     4.040000000
