201
-1266.88388
C    -4.672000000    -0.328000000    -1.926000000
H    -4.262000000    -0.032000000    -2.887000000
C    -4.535000000     0.481000000    -0.820000000
C    -5.123000000     0.047000000     0.384000000
H    -4.864000000     0.551000000     1.312000000
C    -3.651000000     1.737000000    -0.862000000
O    -3.661000000     2.453000000    -2.100000000
H    -2.642000000     1.332000000    -0.698000000
O    -3.935000000     2.641000000     0.229000000
C    -2.925000000     3.234000000     0.955000000
C    -2.647000000     2.729000000     2.211000000
H    -3.347000000     2.004000000     2.619000000
C    -1.547000000     3.211000000     2.960000000
O    -1.289000000     2.524000000     4.086000000
C    -0.732000000     4.226000000     2.459000000
C     0.535000000     4.660000000     3.265000000
H     0.877000000     5.600000000     2.827000000
C     1.720000000     3.731000000     2.957000000
C     2.445000000     4.114000000     1.807000000
H     2.358000000     5.064000000     1.287000000
H     0.255000000     4.876000000     4.298000000
C    -0.994000000     4.704000000     1.177000000
H    -0.267000000     5.333000000     0.668000000
C    -2.048000000     4.217000000     0.438000000
C    -2.256000000     4.791000000    -0.914000000
H    -2.003000000     5.844000000    -1.055000000
H    -3.346000000     4.781000000    -0.975000000
C    -1.693000000     3.910000000    -2.070000000
C    -0.427000000     4.284000000    -2.620000000
H     0.053000000     5.202000000    -2.290000000
C    -2.378000000     2.797000000    -2.577000000
C    -1.855000000     1.980000000    -3.542000000
H    -2.466000000     1.168000000    -3.926000000
C    -0.614000000     2.325000000    -4.097000000
O    -0.071000000     1.503000000    -5.001000000
C     0.964000000     0.641000000    -4.439000000
C     0.781000000    -0.721000000    -5.048000000
C     1.847000000    -1.612000000    -5.230000000
H     2.876000000    -1.292000000    -5.088000000
C    -0.483000000    -1.209000000    -5.346000000
H    -1.335000000    -0.559000000    -5.159000000
O     2.295000000     1.062000000    -4.681000000
H     0.847000000     0.598000000    -3.346000000
C     0.094000000     3.451000000    -3.616000000
C     1.415000000     3.834000000    -4.013000000
H     1.592000000     4.891000000    -3.806000000
H     1.597000000     3.573000000    -5.058000000
C     2.487000000     2.992000000    -3.238000000
C     3.014000000     3.539000000    -1.997000000
H     2.775000000     4.591000000    -1.862000000
C     2.853000000     1.692000000    -3.595000000
C     3.631000000     0.916000000    -2.707000000
H     3.732000000    -0.142000000    -2.934000000
C     4.062000000     1.423000000    -1.476000000
O     4.619000000     0.530000000    -0.600000000
C     3.895000000     0.088000000     0.578000000
C     4.071000000    -1.359000000     0.800000000
C     3.667000000    -2.302000000    -0.177000000
H     3.230000000    -1.830000000    -1.054000000
C     4.303000000    -1.837000000     2.118000000
H     4.573000000    -1.182000000     2.942000000
O     4.395000000     0.989000000     1.682000000
H     2.828000000     0.297000000     0.407000000
C     3.791000000     2.742000000    -1.164000000
C     4.252000000     3.419000000     0.147000000
H     4.383000000     4.483000000    -0.063000000
H     5.299000000     3.185000000     0.352000000
C     3.330000000     3.107000000     1.348000000
C     3.586000000     1.950000000     2.149000000
C     2.879000000     1.638000000     3.279000000
H     3.022000000     0.670000000     3.752000000
C     1.908000000     2.551000000     3.693000000
O     1.062000000     2.060000000     4.596000000
C    -0.242000000     1.567000000     4.127000000
H    -0.077000000     1.136000000     3.128000000
C    -0.634000000     0.312000000     4.959000000
C    -1.946000000    -0.204000000     4.926000000
H    -2.697000000     0.399000000     4.423000000
C     0.313000000    -0.403000000     5.641000000
H     1.353000000    -0.092000000     5.582000000
C    -0.027000000    -1.577000000     6.290000000
O     0.986000000    -2.352000000     6.841000000
C    -1.339000000    -2.108000000     6.189000000
H    -1.484000000    -3.070000000     6.674000000
C    -2.253000000    -1.420000000     5.511000000
O    -3.505000000    -2.045000000     5.370000000
C    -4.515000000    -1.451000000     4.734000000
C    -4.878000000    -1.819000000     3.518000000
H    -4.346000000    -2.674000000     3.109000000
C    -5.149000000    -0.359000000     5.348000000
H    -4.982000000    -0.134000000     6.398000000
C    -6.213000000     0.325000000     4.661000000
H    -6.743000000     1.168000000     5.098000000
C    -6.610000000    -0.172000000     3.459000000
H    -7.449000000     0.224000000     2.893000000
C    -5.897000000    -1.200000000     2.845000000
O    -6.285000000    -1.701000000     1.595000000
C    -5.849000000    -1.134000000     0.435000000
C    -5.911000000    -1.957000000    -0.702000000
H    -6.444000000    -2.902000000    -0.637000000
C    -5.383000000    -1.503000000    -1.904000000
O    -5.514000000    -2.320000000    -3.007000000
C    -4.928000000    -2.024000000    -4.204000000
C    -3.715000000    -2.597000000    -4.535000000
H    -3.286000000    -3.336000000    -3.864000000
C    -5.531000000    -1.103000000    -5.025000000
H    -6.451000000    -0.643000000    -4.675000000
C    -4.924000000    -0.716000000    -6.219000000
H    -5.451000000     0.021000000    -6.820000000
C    -3.763000000    -1.314000000    -6.633000000
H    -3.456000000    -0.940000000    -7.606000000
C    -3.127000000    -2.270000000    -5.754000000
O    -1.956000000    -2.932000000    -6.087000000
C    -0.691000000    -2.471000000    -5.808000000
C     0.356000000    -3.267000000    -6.080000000
H     0.162000000    -4.163000000    -6.664000000
C     1.622000000    -2.885000000    -5.730000000
O     2.543000000    -3.960000000    -5.695000000
C     3.304000000    -4.209000000    -4.602000000
C     2.751000000    -4.208000000    -3.298000000
H     1.704000000    -3.989000000    -3.106000000
C     4.689000000    -4.460000000    -4.848000000
H     5.082000000    -4.320000000    -5.852000000
C     5.484000000    -4.746000000    -3.772000000
H     6.554000000    -4.899000000    -3.889000000
C     4.915000000    -4.726000000    -2.472000000
H     5.571000000    -4.860000000    -1.616000000
C     3.564000000    -4.434000000    -2.198000000
O     3.062000000    -4.458000000    -0.896000000
C     3.510000000    -3.642000000     0.124000000
C     3.837000000    -4.123000000     1.353000000
H     3.864000000    -5.206000000     1.445000000
C     4.165000000    -3.224000000     2.378000000
O     4.446000000    -3.673000000     3.673000000
C     4.000000000    -3.004000000     4.807000000
C     4.970000000    -2.461000000     5.709000000
H     6.034000000    -2.424000000     5.488000000
C     4.540000000    -1.979000000     6.936000000
H     5.301000000    -1.665000000     7.646000000
C     3.173000000    -1.900000000     7.241000000
H     2.912000000    -1.432000000     8.187000000
C     2.246000000    -2.323000000     6.312000000
C     2.648000000    -2.898000000     5.061000000
H     1.902000000    -3.211000000     4.334000000
O    -4.216000000   -10.226000000    -1.954000000
H    -4.348000000   -10.792000000    -1.193000000
H    -3.711000000    -9.486000000    -1.617000000
O    -5.406000000    -5.146000000    -0.919000000
H    -4.616000000    -4.786000000    -0.517000000
H    -5.207000000    -5.177000000    -1.855000000
O    -6.684000000    -8.611000000     0.804000000
H    -7.181000000    -9.394000000     0.567000000
H    -5.784000000    -8.921000000     0.908000000
O    -1.489000000    -8.678000000     2.147000000
H    -1.422000000    -7.763000000     2.421000000
H    -1.227000000    -9.179000000     2.920000000
O    -5.922000000    -4.850000000    -5.124000000
H    -5.522000000    -5.126000000    -5.949000000
H    -6.547000000    -4.170000000    -5.376000000
O    -3.964000000    -5.589000000     4.476000000
H    -4.627000000    -5.985000000     3.910000000
H    -4.395000000    -4.819000000     4.847000000
O    -4.868000000    -6.709000000    -3.188000000
H    -5.266000000    -6.181000000    -3.880000000
H    -5.332000000    -7.545000000    -3.227000000
O    -1.036000000    -5.270000000    -3.448000000
H    -1.226000000    -5.092000000    -2.527000000
H    -0.732000000    -6.178000000    -3.459000000
O    -2.744000000    -7.365000000    -1.258000000
H    -3.293000000    -7.122000000    -2.003000000
H    -2.551000000    -6.535000000    -0.822000000
O     0.038000000    -8.408000000    -3.848000000
H     0.159000000    -8.315000000    -2.903000000
H    -0.427000000    -9.239000000    -3.949000000
O    -7.473000000    -4.461000000     1.833000000
H    -7.493000000    -3.599000000     2.250000000
H    -6.571000000    -4.761000000     1.947000000
O     0.679000000    -6.123000000    -0.442000000
H    -0.195000000    -5.819000000    -0.198000000
H     1.066000000    -5.386000000    -0.915000000
O    -8.461000000    -6.008000000    -0.151000000
H    -7.618000000    -5.727000000    -0.508000000
H    -8.540000000    -5.536000000     0.678000000
O    -5.124000000    -6.026000000     1.760000000
H    -4.416000000    -5.415000000     1.556000000
H    -5.285000000    -6.489000000     0.938000000
O    -3.923000000    -8.955000000     0.864000000
H    -3.921000000    -8.161000000     0.330000000
H    -3.065000000    -8.960000000     1.289000000
O    -1.716000000    -5.033000000     2.692000000
H    -2.336000000    -5.321000000     3.362000000
H    -2.266000000    -4.692000000     1.987000000
O    -3.030000000    -5.663000000    -5.687000000
H    -2.891000000    -5.769000000    -4.746000000
H    -2.792000000    -4.753000000    -5.863000000
O     0.056000000    -8.995000000    -0.417000000
H    -0.647000000    -8.991000000     0.233000000
H     0.299000000    -8.074000000    -0.513000000
O     1.139000000    -5.624000000     2.452000000
H     0.251000000    -5.325000000     2.644000000
H     1.079000000    -6.007000000     1.577000000
