201
-1266.87377
C     4.217000000    -2.453000000     2.438000000
H     4.708000000    -2.680000000     1.496000000
C     2.941000000    -2.862000000     2.759000000
C     2.490000000    -2.587000000     4.057000000
H     1.471000000    -2.838000000     4.341000000
C     1.970000000    -3.383000000     1.705000000
O     2.695000000    -4.143000000     0.672000000
H     1.487000000    -2.527000000     1.211000000
O     0.997000000    -4.248000000     2.348000000
C    -0.321000000    -4.288000000     1.935000000
C    -1.269000000    -3.731000000     2.727000000
H    -1.056000000    -3.351000000     3.723000000
C    -2.534000000    -3.517000000     2.250000000
O    -3.296000000    -2.605000000     2.961000000
C    -2.942000000    -3.948000000     0.991000000
C    -4.285000000    -3.532000000     0.435000000
H    -4.695000000    -4.273000000    -0.255000000
C    -4.181000000    -2.233000000    -0.375000000
C    -3.988000000    -2.295000000    -1.725000000
H    -3.794000000    -3.270000000    -2.164000000
H    -5.045000000    -3.453000000     1.215000000
C    -1.971000000    -4.551000000     0.163000000
H    -2.165000000    -4.848000000    -0.864000000
C    -0.663000000    -4.665000000     0.645000000
C     0.319000000    -5.406000000    -0.294000000
H    -0.262000000    -6.053000000    -0.954000000
H     0.875000000    -6.163000000     0.265000000
C     1.209000000    -4.563000000    -1.155000000
C     0.819000000    -4.262000000    -2.460000000
H    -0.081000000    -4.760000000    -2.812000000
C     2.367000000    -3.948000000    -0.636000000
C     3.062000000    -3.019000000    -1.420000000
H     3.871000000    -2.469000000    -0.948000000
C     2.680000000    -2.721000000    -2.726000000
O     3.357000000    -1.647000000    -3.290000000
C     2.572000000    -0.446000000    -3.268000000
C     3.359000000     0.854000000    -2.961000000
C     3.205000000     2.050000000    -3.594000000
H     2.597000000     2.124000000    -4.491000000
C     4.272000000     0.748000000    -1.967000000
H     4.422000000    -0.227000000    -1.509000000
O     1.849000000    -0.270000000    -4.489000000
H     1.762000000    -0.515000000    -2.528000000
C     1.489000000    -3.360000000    -3.253000000
C     0.931000000    -3.103000000    -4.699000000
H     0.377000000    -3.961000000    -5.086000000
H     1.695000000    -2.822000000    -5.427000000
C     0.026000000    -1.849000000    -4.533000000
C    -1.349000000    -2.100000000    -4.500000000
H    -1.747000000    -3.111000000    -4.495000000
C     0.531000000    -0.591000000    -4.445000000
C    -0.368000000     0.471000000    -4.553000000
H    -0.022000000     1.501000000    -4.578000000
C    -1.703000000     0.265000000    -4.360000000
O    -2.476000000     1.342000000    -4.158000000
C    -2.826000000     1.744000000    -2.803000000
C    -2.679000000     3.230000000    -2.477000000
C    -1.753000000     4.019000000    -3.183000000
H    -1.084000000     3.631000000    -3.946000000
C    -3.435000000     3.806000000    -1.407000000
H    -4.176000000     3.280000000    -0.811000000
O    -4.142000000     1.335000000    -2.507000000
H    -2.239000000     1.161000000    -2.077000000
C    -2.258000000    -1.021000000    -4.236000000
C    -3.745000000    -1.202000000    -3.967000000
H    -4.109000000    -2.171000000    -4.314000000
H    -4.341000000    -0.472000000    -4.518000000
C    -3.987000000    -1.114000000    -2.464000000
C    -4.229000000     0.104000000    -1.865000000
C    -4.230000000     0.136000000    -0.455000000
H    -4.206000000     1.064000000     0.111000000
C    -4.282000000    -1.033000000     0.286000000
O    -4.401000000    -1.016000000     1.642000000
C    -3.230000000    -1.219000000     2.480000000
H    -2.322000000    -1.038000000     1.887000000
C    -3.201000000    -0.137000000     3.602000000
C    -2.642000000    -0.445000000     4.862000000
H    -2.401000000    -1.489000000     5.045000000
C    -3.333000000     1.243000000     3.299000000
H    -3.624000000     1.647000000     2.333000000
C    -3.082000000     2.196000000     4.283000000
O    -3.162000000     3.577000000     3.950000000
C    -2.532000000     1.868000000     5.532000000
H    -2.261000000     2.668000000     6.216000000
C    -2.342000000     0.513000000     5.815000000
O    -1.587000000     0.196000000     6.841000000
C    -0.686000000    -0.821000000     6.966000000
C     0.609000000    -0.556000000     6.569000000
H     0.921000000     0.334000000     6.028000000
C    -1.123000000    -2.064000000     7.292000000
H    -2.184000000    -2.270000000     7.402000000
C    -0.183000000    -3.094000000     7.494000000
H    -0.574000000    -4.067000000     7.781000000
C     1.177000000    -2.825000000     7.200000000
H     1.917000000    -3.621000000     7.237000000
C     1.558000000    -1.582000000     6.648000000
O     2.762000000    -1.431000000     6.177000000
C     3.228000000    -1.755000000     4.911000000
C     4.570000000    -1.452000000     4.613000000
H     5.109000000    -0.895000000     5.376000000
C     5.084000000    -1.803000000     3.389000000
O     6.305000000    -1.376000000     3.063000000
C     6.617000000    -0.954000000     1.706000000
C     5.953000000     0.128000000     1.134000000
H     5.173000000     0.635000000     1.695000000
C     7.542000000    -1.664000000     1.018000000
H     7.880000000    -2.597000000     1.461000000
C     7.884000000    -1.219000000    -0.215000000
H     8.498000000    -1.792000000    -0.905000000
C     7.330000000    -0.042000000    -0.766000000
H     7.577000000     0.395000000    -1.730000000
C     6.366000000     0.631000000    -0.036000000
O     5.826000000     1.778000000    -0.410000000
C     5.000000000     1.885000000    -1.494000000
C     4.817000000     3.131000000    -2.158000000
H     5.431000000     3.943000000    -1.778000000
C     3.855000000     3.246000000    -3.174000000
O     3.698000000     4.392000000    -3.858000000
C     2.529000000     4.723000000    -4.428000000
C     1.422000000     5.000000000    -3.645000000
H     1.572000000     5.053000000    -2.570000000
C     2.615000000     4.984000000    -5.762000000
H     3.546000000     4.879000000    -6.314000000
C     1.507000000     5.567000000    -6.375000000
H     1.537000000     5.790000000    -7.438000000
C     0.329000000     5.843000000    -5.653000000
H    -0.469000000     6.385000000    -6.155000000
C     0.313000000     5.617000000    -4.255000000
O    -0.667000000     6.143000000    -3.473000000
C    -1.676000000     5.368000000    -2.925000000
C    -2.357000000     5.979000000    -1.863000000
H    -2.202000000     7.034000000    -1.652000000
C    -3.258000000     5.180000000    -1.118000000
O    -3.938000000     5.884000000    -0.142000000
C    -4.416000000     5.188000000     0.986000000
C    -5.698000000     4.729000000     1.043000000
H    -6.333000000     4.930000000     0.184000000
C    -6.199000000     4.068000000     2.130000000
H    -7.234000000     3.738000000     2.096000000
C    -5.433000000     3.689000000     3.216000000
H    -5.872000000     3.131000000     4.039000000
C    -4.056000000     3.943000000     3.041000000
C    -3.572000000     4.760000000     1.991000000
H    -2.523000000     5.040000000     1.955000000
O     4.189000000     4.992000000     4.125000000
H     4.386000000     4.108000000     3.818000000
H     3.830000000     4.867000000     5.004000000
O     1.638000000     3.229000000     5.368000000
H     2.277000000     2.904000000     4.734000000
H     0.923000000     3.571000000     4.832000000
O     4.938000000     6.209000000    -0.815000000
H     5.011000000     6.747000000    -0.027000000
H     4.367000000     5.485000000    -0.558000000
O     8.251000000     3.215000000     4.377000000
H     7.347000000     3.313000000     4.077000000
H     8.271000000     3.661000000     5.224000000
O     0.302000000     4.763000000    -0.235000000
H    -0.192000000     3.999000000     0.062000000
H     1.174000000     4.647000000     0.143000000
O     0.684000000     7.357000000    -0.883000000
H     0.390000000     7.055000000    -1.742000000
H     0.836000000     6.553000000    -0.385000000
O     6.304000000     3.263000000     2.461000000
H     6.571000000     3.245000000     1.542000000
H     5.358000000     3.120000000     2.439000000
O     7.918000000     6.935000000     1.817000000
H     7.303000000     6.816000000     2.541000000
H     8.610000000     6.296000000     1.984000000
O     5.187000000     1.879000000     8.123000000
H     5.493000000     1.966000000     7.220000000
H     4.245000000     1.728000000     8.043000000
O     2.642000000     4.802000000     0.863000000
H     2.736000000     5.561000000     1.437000000
H     2.919000000     4.060000000     1.400000000
O     3.638000000     4.909000000     7.067000000
H     4.332000000     4.847000000     7.723000000
H     3.301000000     4.016000000     6.989000000
O     3.320000000     6.916000000     2.369000000
H     3.669000000     6.214000000     2.919000000
H     3.999000000     7.590000000     2.382000000
O    -0.869000000     2.821000000     1.701000000
H    -0.599000000     1.903000000     1.698000000
H    -0.490000000     3.180000000     2.504000000
O     5.503000000     1.611000000     5.432000000
H     4.597000000     1.534000000     5.130000000
H     6.016000000     1.152000000     4.767000000
O     2.556000000    -0.347000000     9.139000000
H     2.809000000     0.307000000     9.791000000
H     2.404000000     0.158000000     8.340000000
O     6.068000000     7.078000000     3.824000000
H     6.145000000     7.510000000     4.675000000
H     5.356000000     6.449000000     3.939000000
O     9.312000000     2.207000000     0.895000000
H    10.060000000     2.453000000     1.441000000
H     9.474000000     1.292000000     0.666000000
O     2.285000000     2.071000000     7.786000000
H     1.506000000     2.184000000     8.331000000
H     1.995000000     2.297000000     6.903000000
O    -0.392000000     4.494000000     3.959000000
H    -1.337000000     4.343000000     3.983000000
H    -0.286000000     5.398000000     4.254000000
