201
-1247.37642
C     3.825000000    -2.569000000     1.407000000
H     3.905000000    -2.315000000     0.353000000
C     2.641000000    -3.198000000     1.853000000
C     2.461000000    -3.396000000     3.227000000
H     1.572000000    -3.960000000     3.497000000
C     1.691000000    -3.790000000     0.800000000
O     2.377000000    -4.469000000    -0.325000000
H     1.094000000    -2.978000000     0.360000000
O     0.761000000    -4.656000000     1.307000000
C    -0.546000000    -4.519000000     0.946000000
C    -1.424000000    -3.986000000     1.909000000
H    -0.981000000    -3.853000000     2.893000000
C    -2.735000000    -3.654000000     1.607000000
O    -3.302000000    -2.793000000     2.497000000
C    -3.145000000    -3.881000000     0.308000000
C    -4.455000000    -3.269000000    -0.199000000
H    -4.915000000    -3.821000000    -1.022000000
C    -4.374000000    -1.761000000    -0.673000000
C    -4.183000000    -1.364000000    -1.969000000
H    -3.921000000    -2.123000000    -2.702000000
H    -5.281000000    -3.301000000     0.514000000
C    -2.335000000    -4.549000000    -0.582000000
H    -2.678000000    -4.908000000    -1.549000000
C    -0.997000000    -4.886000000    -0.275000000
C    -0.092000000    -5.471000000    -1.318000000
H    -0.700000000    -6.089000000    -1.982000000
H     0.630000000    -6.076000000    -0.767000000
C     0.719000000    -4.451000000    -2.092000000
C     0.205000000    -3.803000000    -3.259000000
H    -0.756000000    -4.207000000    -3.567000000
C     1.960000000    -4.085000000    -1.609000000
C     2.689000000    -3.085000000    -2.264000000
H     3.636000000    -2.753000000    -1.847000000
C     2.163000000    -2.527000000    -3.439000000
O     2.847000000    -1.481000000    -3.837000000
C     2.390000000    -0.100000000    -3.408000000
C     3.564000000     0.811000000    -3.111000000
C     3.477000000     2.174000000    -3.347000000
H     2.630000000     2.626000000    -3.856000000
C     4.733000000     0.263000000    -2.618000000
H     4.770000000    -0.776000000    -2.300000000
O     1.596000000     0.399000000    -4.568000000
H     1.764000000    -0.148000000    -2.505000000
C     0.934000000    -2.824000000    -3.956000000
C     0.262000000    -2.139000000    -5.155000000
H    -0.433000000    -2.767000000    -5.715000000
H     1.075000000    -1.993000000    -5.871000000
C    -0.552000000    -0.851000000    -4.817000000
C    -1.944000000    -0.776000000    -4.728000000
H    -2.484000000    -1.716000000    -4.805000000
C     0.222000000     0.356000000    -4.533000000
C    -0.440000000     1.563000000    -4.168000000
H     0.083000000     2.443000000    -3.802000000
C    -1.788000000     1.503000000    -4.019000000
O    -2.412000000     2.640000000    -3.442000000
C    -2.698000000     2.590000000    -2.029000000
C    -2.278000000     3.903000000    -1.334000000
C    -1.126000000     4.652000000    -1.741000000
H    -0.615000000     4.350000000    -2.651000000
C    -2.942000000     4.273000000    -0.152000000
H    -3.848000000     3.684000000    -0.034000000
O    -4.111000000     2.223000000    -1.824000000
H    -2.068000000     1.821000000    -1.560000000
C    -2.624000000     0.363000000    -4.280000000
C    -4.090000000     0.216000000    -3.921000000
H    -4.490000000    -0.617000000    -4.503000000
H    -4.752000000     1.032000000    -4.219000000
C    -4.269000000    -0.063000000    -2.463000000
C    -4.431000000     0.945000000    -1.537000000
C    -4.421000000     0.609000000    -0.175000000
H    -4.478000000     1.424000000     0.542000000
C    -4.514000000    -0.710000000     0.232000000
O    -4.629000000    -1.003000000     1.610000000
C    -3.392000000    -1.359000000     2.214000000
H    -2.550000000    -1.091000000     1.559000000
C    -3.172000000    -0.561000000     3.468000000
C    -2.213000000    -0.939000000     4.423000000
H    -1.663000000    -1.848000000     4.193000000
C    -3.833000000     0.600000000     3.690000000
H    -4.521000000     0.936000000     2.918000000
C    -3.698000000     1.320000000     4.878000000
O    -4.560000000     2.398000000     5.065000000
C    -2.783000000     0.989000000     5.815000000
H    -2.697000000     1.454000000     6.793000000
C    -2.039000000    -0.179000000     5.646000000
O    -0.980000000    -0.316000000     6.494000000
C    -0.236000000    -1.507000000     6.686000000
C     1.076000000    -1.671000000     6.171000000
H     1.562000000    -0.765000000     5.818000000
C    -0.913000000    -2.634000000     7.158000000
H    -1.993000000    -2.628000000     7.281000000
C    -0.235000000    -3.854000000     7.156000000
H    -0.793000000    -4.741000000     7.447000000
C     1.063000000    -4.021000000     6.711000000
H     1.491000000    -5.018000000     6.644000000
C     1.685000000    -2.930000000     6.169000000
O     2.987000000    -2.949000000     5.550000000
C     3.276000000    -2.888000000     4.166000000
C     4.430000000    -2.270000000     3.747000000
H     5.037000000    -1.745000000     4.480000000
C     4.675000000    -2.036000000     2.379000000
O     5.833000000    -1.434000000     2.020000000
C     6.368000000    -1.508000000     0.750000000
C     6.444000000    -0.370000000    -0.105000000
H     5.977000000     0.567000000     0.189000000
C     7.077000000    -2.681000000     0.434000000
H     7.234000000    -3.520000000     1.107000000
C     7.721000000    -2.727000000    -0.821000000
H     8.401000000    -3.531000000    -1.090000000
C     7.716000000    -1.618000000    -1.702000000
H     8.071000000    -1.652000000    -2.729000000
C     7.116000000    -0.447000000    -1.298000000
O     7.023000000     0.627000000    -2.200000000
C     5.835000000     1.145000000    -2.492000000
C     5.785000000     2.516000000    -2.669000000
H     6.650000000     3.170000000    -2.601000000
C     4.538000000     3.065000000    -3.088000000
O     4.531000000     4.403000000    -3.411000000
C     3.310000000     5.180000000    -3.428000000
C     2.451000000     5.219000000    -2.340000000
H     2.677000000     4.728000000    -1.397000000
C     2.913000000     5.800000000    -4.555000000
H     3.504000000     5.779000000    -5.467000000
C     1.834000000     6.653000000    -4.600000000
H     1.749000000     7.221000000    -5.523000000
C     0.996000000     6.800000000    -3.459000000
H     0.108000000     7.428000000    -3.429000000
C     1.284000000     6.042000000    -2.338000000
O     0.485000000     6.327000000    -1.196000000
C    -0.541000000     5.618000000    -0.885000000
C    -1.231000000     5.990000000     0.280000000
H    -0.943000000     6.858000000     0.867000000
C    -2.478000000     5.351000000     0.629000000
O    -3.085000000     5.684000000     1.835000000
C    -4.141000000     5.011000000     2.440000000
C    -5.483000000     5.517000000     2.405000000
H    -5.766000000     6.366000000     1.788000000
C    -6.448000000     4.894000000     3.195000000
H    -7.485000000     5.210000000     3.274000000
C    -6.125000000     3.783000000     3.964000000
H    -6.862000000     3.304000000     4.604000000
C    -4.809000000     3.329000000     4.052000000
C    -3.823000000     3.998000000     3.304000000
H    -2.777000000     3.807000000     3.530000000
O     7.468000000     1.004000000     2.831000000
H     6.962000000     1.695000000     2.405000000
H     6.988000000     0.200000000     2.636000000
O     0.472000000     2.203000000     5.666000000
H    -0.139000000     1.484000000     5.501000000
H     1.285000000     1.928000000     5.244000000
O     2.765000000     5.057000000     1.610000000
H     3.199000000     4.318000000     2.037000000
H     1.937000000     5.153000000     2.081000000
O     4.919000000     2.432000000     7.793000000
H     4.319000000     2.464000000     8.538000000
H     5.673000000     2.952000000     8.071000000
O     7.947000000     4.566000000     3.143000000
H     7.320000000     4.144000000     2.556000000
H     7.841000000     4.107000000     3.977000000
O     7.658000000     2.813000000     5.124000000
H     7.373000000     2.044000000     4.631000000
H     6.852000000     3.177000000     5.489000000
O     5.662000000    -1.907000000     7.070000000
H     5.069000000    -1.177000000     6.895000000
H     5.985000000    -1.746000000     7.956000000
O     2.499000000     5.359000000     5.669000000
H     3.433000000     5.533000000     5.548000000
H     2.212000000     5.000000000     4.830000000
O     5.881000000     2.848000000     2.031000000
H     5.839000000     3.580000000     1.416000000
H     5.083000000     2.928000000     2.553000000
O     5.082000000     3.744000000     5.441000000
H     4.243000000     3.437000000     5.097000000
H     5.063000000     3.504000000     6.367000000
O    -0.760000000     2.858000000     2.331000000
H    -0.511000000     1.963000000     2.564000000
H    -0.495000000     2.949000000     1.415000000
O     7.586000000    -0.608000000     5.576000000
H     7.872000000    -0.057000000     6.305000000
H     6.643000000    -0.705000000     5.705000000
O    -1.258000000     4.265000000     7.153000000
H    -0.851000000     3.465000000     6.820000000
H    -1.866000000     3.961000000     7.827000000
O     1.945000000     3.415000000     7.930000000
H     1.345000000     2.791000000     7.521000000
H     2.228000000     3.981000000     7.212000000
O     5.676000000     4.676000000     0.237000000
H     4.773000000     4.805000000     0.529000000
H     5.735000000     5.165000000    -0.583000000
O    -0.119000000     6.300000000     5.804000000
H    -0.557000000     5.639000000     6.341000000
H     0.814000000     6.155000000     5.960000000
O     5.105000000     6.578000000     5.948000000
H     5.367000000     5.681000000     5.741000000
H     5.901000000     6.988000000     6.287000000
O     4.752000000     0.319000000     5.946000000
H     4.051000000     0.531000000     5.329000000
H     4.776000000     1.065000000     6.546000000
O     0.929000000     4.939000000     3.585000000
H     0.453000000     5.532000000     4.166000000
H     0.271000000     4.307000000     3.295000000
