201
-1282.67911
C    -5.219000000     0.772000000    -1.993000000
H    -4.884000000     1.176000000    -2.945000000
C    -4.743000000     1.303000000    -0.805000000
C    -5.100000000     0.625000000     0.416000000
H    -4.724000000     1.049000000     1.344000000
C    -3.640000000     2.356000000    -0.847000000
O    -3.491000000     2.969000000    -2.167000000
H    -2.671000000     1.836000000    -0.817000000
O    -3.827000000     3.365000000     0.147000000
C    -2.669000000     3.700000000     0.795000000
C    -2.439000000     3.123000000     2.037000000
H    -3.103000000     2.395000000     2.496000000
C    -1.310000000     3.526000000     2.797000000
O    -1.039000000     2.820000000     3.974000000
C    -0.325000000     4.352000000     2.216000000
C     0.965000000     4.684000000     2.884000000
H     1.367000000     5.631000000     2.518000000
C     1.999000000     3.552000000     2.723000000
C     2.815000000     3.748000000     1.650000000
H     2.714000000     4.681000000     1.101000000
H     0.886000000     4.893000000     3.953000000
C    -0.529000000     4.738000000     0.907000000
H     0.156000000     5.414000000     0.402000000
C    -1.700000000     4.440000000     0.147000000
C    -1.881000000     5.057000000    -1.201000000
H    -1.334000000     6.000000000    -1.267000000
H    -2.915000000     5.351000000    -1.393000000
C    -1.406000000     4.118000000    -2.246000000
C    -0.107000000     4.197000000    -2.740000000
H     0.601000000     4.882000000    -2.280000000
C    -2.210000000     3.108000000    -2.708000000
C    -1.706000000     2.130000000    -3.509000000
H    -2.331000000     1.351000000    -3.938000000
C    -0.402000000     2.266000000    -4.034000000
O     0.127000000     1.172000000    -4.714000000
C     0.860000000     0.169000000    -4.022000000
C     0.602000000    -1.293000000    -4.450000000
C     1.619000000    -2.273000000    -4.564000000
H     2.673000000    -2.044000000    -4.429000000
C    -0.796000000    -1.588000000    -4.533000000
H    -1.555000000    -0.874000000    -4.225000000
O     2.217000000     0.534000000    -4.302000000
H     0.718000000     0.263000000    -2.935000000
C     0.406000000     3.306000000    -3.662000000
C     1.802000000     3.384000000    -4.101000000
H     2.204000000     4.388000000    -3.947000000
H     2.065000000     3.099000000    -5.122000000
C     2.724000000     2.562000000    -3.146000000
C     3.389000000     3.211000000    -2.073000000
H     3.340000000     4.280000000    -1.883000000
C     2.971000000     1.199000000    -3.357000000
C     3.811000000     0.408000000    -2.551000000
H     3.947000000    -0.658000000    -2.715000000
C     4.335000000     1.057000000    -1.425000000
O     5.111000000     0.231000000    -0.558000000
C     4.380000000    -0.170000000     0.546000000
C     4.377000000    -1.676000000     0.890000000
C     4.465000000    -2.569000000    -0.167000000
H     4.545000000    -2.180000000    -1.179000000
C     4.504000000    -2.175000000     2.204000000
H     4.506000000    -1.475000000     3.035000000
O     4.749000000     0.562000000     1.675000000
H     3.312000000     0.074000000     0.444000000
C     4.212000000     2.426000000    -1.185000000
C     4.707000000     3.041000000     0.116000000
H     4.735000000     4.124000000    -0.026000000
H     5.678000000     2.672000000     0.453000000
C     3.804000000     2.817000000     1.304000000
C     3.862000000     1.616000000     1.996000000
C     2.941000000     1.377000000     2.993000000
H     2.855000000     0.391000000     3.442000000
C     2.010000000     2.324000000     3.397000000
O     1.078000000     1.867000000     4.291000000
C    -0.279000000     1.611000000     3.816000000
H    -0.233000000     1.380000000     2.741000000
C    -0.884000000     0.473000000     4.567000000
C    -2.166000000     0.480000000     5.005000000
H    -2.785000000     1.352000000     4.816000000
C    -0.035000000    -0.571000000     4.922000000
H     1.016000000    -0.580000000     4.644000000
C    -0.464000000    -1.648000000     5.685000000
O     0.375000000    -2.658000000     6.085000000
C    -1.794000000    -1.706000000     5.951000000
H    -2.227000000    -2.461000000     6.602000000
C    -2.671000000    -0.649000000     5.650000000
O    -4.012000000    -0.862000000     5.984000000
C    -5.019000000    -0.625000000     5.086000000
C    -4.945000000    -0.895000000     3.690000000
H    -4.078000000    -1.385000000     3.255000000
C    -6.205000000    -0.062000000     5.637000000
H    -6.211000000     0.236000000     6.682000000
C    -7.319000000     0.052000000     4.832000000
H    -8.237000000     0.400000000     5.297000000
C    -7.212000000    -0.118000000     3.450000000
H    -8.031000000     0.080000000     2.763000000
C    -6.045000000    -0.612000000     2.916000000
O    -6.083000000    -1.117000000     1.642000000
C    -5.928000000    -0.449000000     0.412000000
C    -6.489000000    -0.889000000    -0.786000000
H    -7.322000000    -1.587000000    -0.819000000
C    -6.077000000    -0.290000000    -1.983000000
O    -6.481000000    -0.901000000    -3.144000000
C    -5.525000000    -1.266000000    -4.111000000
C    -4.481000000    -2.153000000    -3.797000000
H    -4.320000000    -2.589000000    -2.814000000
C    -5.739000000    -0.909000000    -5.461000000
H    -6.609000000    -0.345000000    -5.788000000
C    -4.877000000    -1.307000000    -6.468000000
H    -5.002000000    -1.010000000    -7.506000000
C    -3.794000000    -2.070000000    -6.166000000
H    -3.199000000    -2.491000000    -6.973000000
C    -3.585000000    -2.494000000    -4.837000000
O    -2.460000000    -3.378000000    -4.605000000
C    -1.151000000    -2.940000000    -4.815000000
C    -0.133000000    -3.882000000    -5.095000000
H    -0.461000000    -4.904000000    -5.269000000
C     1.185000000    -3.561000000    -4.956000000
O     2.088000000    -4.662000000    -4.984000000
C     3.300000000    -4.585000000    -4.325000000
C     3.330000000    -4.530000000    -2.929000000
H     2.419000000    -4.665000000    -2.352000000
C     4.514000000    -4.563000000    -5.064000000
H     4.522000000    -4.605000000    -6.150000000
C     5.778000000    -4.430000000    -4.426000000
H     6.694000000    -4.295000000    -4.995000000
C     5.854000000    -4.459000000    -3.032000000
H     6.768000000    -4.368000000    -2.450000000
C     4.626000000    -4.599000000    -2.327000000
O     4.648000000    -4.832000000    -0.999000000
C     4.429000000    -3.959000000     0.066000000
C     4.415000000    -4.491000000     1.370000000
H     4.468000000    -5.565000000     1.533000000
C     4.364000000    -3.541000000     2.464000000
O     4.250000000    -4.026000000     3.755000000
C     3.720000000    -3.333000000     4.762000000
C     4.511000000    -2.483000000     5.562000000
H     5.571000000    -2.391000000     5.338000000
C     3.861000000    -1.660000000     6.495000000
H     4.423000000    -0.879000000     7.000000000
C     2.509000000    -1.753000000     6.805000000
H     1.989000000    -1.141000000     7.537000000
C     1.769000000    -2.611000000     6.021000000
C     2.355000000    -3.406000000     5.040000000
H     1.681000000    -4.029000000     4.458000000
O     2.150000000    -7.259000000    -1.296000000
H     3.067000000    -7.039000000    -1.460000000
H     2.067000000    -8.169000000    -1.583000000
O    -7.590000000    -3.864000000    -3.820000000
H    -7.599000000    -2.907000000    -3.840000000
H    -7.439000000    -4.121000000    -4.729000000
O    -7.476000000    -6.839000000    -0.911000000
H    -7.966000000    -6.041000000    -1.111000000
H    -7.077000000    -7.090000000    -1.744000000
O    -0.859000000    -9.024000000     1.576000000
H    -0.535000000    -8.181000000     1.260000000
H    -1.287000000    -8.820000000     2.408000000
O    -3.952000000    -5.732000000    -4.992000000
H    -4.374000000    -5.734000000    -5.851000000
H    -3.525000000    -4.877000000    -4.937000000
O    -5.477000000    -3.666000000     2.965000000
H    -5.566000000    -4.162000000     2.151000000
H    -6.148000000    -2.986000000     2.905000000
O    -5.783000000    -7.094000000    -3.188000000
H    -5.130000000    -6.539000000    -3.614000000
H    -5.636000000    -7.964000000    -3.559000000
O    -2.082000000    -6.720000000    -2.972000000
H    -1.783000000    -5.897000000    -2.586000000
H    -2.455000000    -6.467000000    -3.817000000
O    -3.519000000    -6.728000000    -0.477000000
H    -3.454000000    -6.980000000    -1.398000000
H    -3.367000000    -5.783000000    -0.476000000
O     1.209000000    -9.859000000    -2.369000000
H     1.229000000   -10.637000000    -1.812000000
H     0.372000000    -9.440000000    -2.166000000
O    -8.872000000    -3.289000000     1.345000000
H    -9.390000000    -3.756000000     0.689000000
H    -7.968000000    -3.379000000     1.044000000
O    -0.071000000    -6.639000000     0.601000000
H    -0.712000000    -6.194000000     0.046000000
H     0.696000000    -6.749000000     0.040000000
O    -5.590000000    -4.464000000     0.464000000
H    -4.768000000    -4.219000000     0.038000000
H    -5.631000000    -5.416000000     0.376000000
O    -4.703000000    -7.331000000     2.188000000
H    -4.345000000    -7.267000000     1.302000000
H    -3.989000000    -7.042000000     2.756000000
O    -2.834000000    -4.673000000     2.709000000
H    -3.704000000    -4.310000000     2.875000000
H    -2.612000000    -4.371000000     1.829000000
O    -2.664000000   -10.270000000    -3.646000000
H    -2.486000000    -9.595000000    -4.301000000
H    -2.352000000    -9.893000000    -2.824000000
O    -1.262000000    -8.799000000    -1.600000000
H    -1.475000000    -8.019000000    -2.112000000
H    -1.234000000    -8.490000000    -0.694000000
O    -0.355000000    -5.760000000     3.169000000
H    -1.257000000    -5.439000000     3.160000000
H    -0.077000000    -5.717000000     2.254000000
O     1.574000000    -7.928000000     3.469000000
H     2.350000000    -7.439000000     3.195000000
H     0.854000000    -7.303000000     3.382000000
