201
-1249.21422
C     3.541000000    -2.561000000     1.727000000
H     3.862000000    -2.441000000     0.695000000
C     2.282000000    -3.056000000     2.007000000
C     1.817000000    -3.097000000     3.339000000
H     0.771000000    -3.351000000     3.489000000
C     1.361000000    -3.537000000     0.853000000
O     2.050000000    -4.247000000    -0.198000000
H     0.963000000    -2.656000000     0.330000000
O     0.360000000    -4.418000000     1.359000000
C    -0.890000000    -4.242000000     0.953000000
C    -1.836000000    -3.743000000     1.880000000
H    -1.491000000    -3.545000000     2.892000000
C    -3.101000000    -3.260000000     1.490000000
O    -3.970000000    -2.544000000     2.282000000
C    -3.553000000    -3.544000000     0.185000000
C    -4.778000000    -2.946000000    -0.371000000
H    -5.196000000    -3.473000000    -1.232000000
C    -4.571000000    -1.564000000    -0.861000000
C    -4.134000000    -1.300000000    -2.183000000
H    -4.088000000    -2.133000000    -2.881000000
H    -5.603000000    -2.958000000     0.344000000
C    -2.614000000    -4.097000000    -0.752000000
H    -2.894000000    -4.134000000    -1.802000000
C    -1.299000000    -4.453000000    -0.371000000
C    -0.412000000    -5.190000000    -1.354000000
H    -0.961000000    -5.818000000    -2.059000000
H     0.162000000    -5.906000000    -0.762000000
C     0.538000000    -4.256000000    -2.056000000
C     0.167000000    -3.883000000    -3.337000000
H    -0.794000000    -4.135000000    -3.778000000
C     1.752000000    -3.875000000    -1.509000000
C     2.645000000    -3.114000000    -2.226000000
H     3.512000000    -2.624000000    -1.791000000
C     2.262000000    -2.665000000    -3.492000000
O     3.067000000    -1.748000000    -4.035000000
C     2.690000000    -0.351000000    -3.765000000
C     3.932000000     0.488000000    -3.369000000
C     3.851000000     1.878000000    -3.463000000
H     2.903000000     2.224000000    -3.867000000
C     4.985000000    -0.077000000    -2.697000000
H     5.162000000    -1.121000000    -2.454000000
O     2.051000000     0.252000000    -4.881000000
H     1.972000000    -0.353000000    -2.931000000
C     1.033000000    -2.969000000    -4.041000000
C     0.634000000    -2.213000000    -5.298000000
H    -0.100000000    -2.882000000    -5.752000000
H     1.407000000    -1.982000000    -6.034000000
C    -0.081000000    -0.885000000    -4.970000000
C    -1.470000000    -0.831000000    -4.800000000
H    -1.955000000    -1.763000000    -5.081000000
C     0.640000000     0.287000000    -4.805000000
C     0.038000000     1.416000000    -4.269000000
H     0.686000000     2.249000000    -4.008000000
C    -1.331000000     1.454000000    -4.113000000
O    -1.823000000     2.619000000    -3.471000000
C    -2.125000000     2.559000000    -2.104000000
C    -1.708000000     3.876000000    -1.321000000
C    -0.551000000     4.626000000    -1.705000000
H     0.014000000     4.209000000    -2.536000000
C    -2.400000000     4.275000000    -0.212000000
H    -3.292000000     3.763000000     0.138000000
O    -3.532000000     2.330000000    -2.038000000
H    -1.522000000     1.734000000    -1.696000000
C    -2.121000000     0.338000000    -4.409000000
C    -3.592000000     0.314000000    -4.175000000
H    -4.156000000    -0.394000000    -4.785000000
H    -3.939000000     1.337000000    -4.340000000
C    -3.929000000    -0.028000000    -2.683000000
C    -3.971000000     1.026000000    -1.718000000
C    -4.373000000     0.771000000    -0.391000000
H    -4.466000000     1.652000000     0.239000000
C    -4.751000000    -0.548000000     0.008000000
O    -5.038000000    -0.677000000     1.381000000
C    -3.932000000    -1.131000000     2.190000000
H    -3.017000000    -0.843000000     1.652000000
C    -3.835000000    -0.503000000     3.508000000
C    -3.204000000    -1.126000000     4.544000000
H    -2.842000000    -2.138000000     4.384000000
C    -4.270000000     0.811000000     3.717000000
H    -4.590000000     1.292000000     2.796000000
C    -4.023000000     1.490000000     4.919000000
O    -4.162000000     2.890000000     5.004000000
C    -3.565000000     0.786000000     5.986000000
H    -3.384000000     1.277000000     6.939000000
C    -3.061000000    -0.459000000     5.749000000
O    -2.451000000    -1.082000000     6.765000000
C    -1.462000000    -2.085000000     6.572000000
C    -0.158000000    -1.768000000     6.160000000
H     0.170000000    -0.733000000     6.107000000
C    -1.797000000    -3.395000000     6.808000000
H    -2.756000000    -3.593000000     7.281000000
C    -0.795000000    -4.402000000     6.832000000
H    -0.999000000    -5.405000000     7.198000000
C     0.490000000    -4.036000000     6.411000000
H     1.272000000    -4.769000000     6.232000000
C     0.736000000    -2.730000000     6.022000000
O     2.059000000    -2.449000000     5.657000000
C     2.561000000    -2.581000000     4.371000000
C     3.817000000    -2.077000000     4.033000000
H     4.389000000    -1.587000000     4.817000000
C     4.331000000    -2.141000000     2.789000000
O     5.560000000    -1.536000000     2.576000000
C     6.347000000    -1.638000000     1.449000000
C     6.298000000    -0.636000000     0.483000000
H     5.616000000     0.209000000     0.538000000
C     7.211000000    -2.705000000     1.407000000
H     7.185000000    -3.445000000     2.202000000
C     8.058000000    -2.820000000     0.297000000
H     8.758000000    -3.648000000     0.224000000
C     7.986000000    -1.812000000    -0.689000000
H     8.624000000    -1.843000000    -1.569000000
C     7.099000000    -0.775000000    -0.621000000
O     7.099000000     0.125000000    -1.719000000
C     5.971000000     0.749000000    -2.222000000
C     5.999000000     2.098000000    -2.492000000
H     6.890000000     2.703000000    -2.343000000
C     4.828000000     2.723000000    -2.953000000
O     4.836000000     4.114000000    -3.117000000
C     3.721000000     4.949000000    -3.171000000
C     2.788000000     5.000000000    -2.146000000
H     2.887000000     4.496000000    -1.188000000
C     3.573000000     5.668000000    -4.340000000
H     4.147000000     5.494000000    -5.246000000
C     2.518000000     6.596000000    -4.482000000
H     2.470000000     7.121000000    -5.432000000
C     1.667000000     6.788000000    -3.438000000
H     0.877000000     7.520000000    -3.587000000
C     1.807000000     6.049000000    -2.251000000
O     0.987000000     6.417000000    -1.255000000
C    -0.101000000     5.706000000    -0.915000000
C    -0.891000000     6.208000000     0.043000000
H    -0.610000000     7.106000000     0.587000000
C    -2.012000000     5.434000000     0.483000000
O    -2.749000000     5.911000000     1.514000000
C    -3.734000000     5.283000000     2.243000000
C    -5.035000000     5.469000000     1.733000000
H    -5.233000000     6.156000000     0.914000000
C    -6.008000000     4.683000000     2.344000000
H    -7.056000000     4.779000000     2.070000000
C    -5.744000000     3.891000000     3.496000000
H    -6.586000000     3.450000000     4.024000000
C    -4.438000000     3.742000000     3.986000000
C    -3.428000000     4.404000000     3.277000000
H    -2.374000000     4.187000000     3.436000000
O     9.822000000     1.580000000     3.108000000
H     8.909000000     1.401000000     3.333000000
H    10.078000000     2.293000000     3.693000000
O     2.682000000     3.347000000     4.633000000
H     3.451000000     2.896000000     4.285000000
H     2.599000000     3.021000000     5.530000000
O     4.868000000     5.019000000     1.555000000
H     4.814000000     4.064000000     1.532000000
H     5.281000000     5.215000000     2.396000000
O     1.225000000     6.050000000     2.479000000
H     0.862000000     5.173000000     2.600000000
H     2.170000000     5.911000000     2.411000000
O     7.706000000     6.737000000     3.153000000
H     7.638000000     5.787000000     3.248000000
H     7.646000000     7.072000000     4.048000000
O     7.513000000     2.557000000     0.477000000
H     7.866000000     3.063000000     1.209000000
H     6.607000000     2.376000000     0.726000000
O     7.137000000     3.647000000     3.486000000
H     7.278000000     3.485000000     4.419000000
H     6.437000000     3.042000000     3.241000000
O     0.066000000     2.766000000     3.454000000
H     1.002000000     2.907000000     3.591000000
H     0.022000000     2.123000000     2.746000000
O     6.435000000    -0.194000000     7.188000000
H     5.528000000    -0.418000000     7.396000000
H     6.570000000    -0.538000000     6.306000000
O     7.417000000     0.377000000     4.328000000
H     6.585000000     0.702000000     3.984000000
H     7.205000000    -0.480000000     4.698000000
O     2.766000000     2.917000000     7.540000000
H     2.850000000     3.791000000     7.923000000
H     3.425000000     2.392000000     7.995000000
O     6.674000000     8.040000000     0.785000000
H     5.744000000     8.269000000     0.808000000
H     6.773000000     7.376000000     1.468000000
O     9.977000000     1.898000000    -0.052000000
H    10.004000000     1.843000000     0.903000000
H     9.079000000     2.162000000    -0.251000000
O     7.147000000    -2.055000000     5.555000000
H     7.795000000    -2.570000000     5.074000000
H     6.948000000    -2.583000000     6.329000000
O     6.744000000     5.933000000    -1.058000000
H     6.640000000     6.792000000    -0.649000000
H     6.114000000     5.373000000    -0.605000000
O     3.782000000     5.821000000     4.879000000
H     3.128000000     6.520000000     4.870000000
H     3.274000000     5.021000000     5.015000000
O     5.951000000     2.765000000     5.960000000
H     5.503000000     2.485000000     5.162000000
H     6.006000000     1.972000000     6.494000000
O     5.262000000     6.513000000     7.165000000
H     5.005000000     7.414000000     6.971000000
H     5.029000000     6.022000000     6.377000000
O    -0.879000000     2.960000000     5.951000000
H    -0.536000000     2.852000000     5.064000000
H    -1.572000000     3.615000000     5.862000000
