201
-1243.91396
C     3.812000000    -2.390000000     1.699000000
H     4.122000000    -2.239000000     0.668000000
C     2.575000000    -3.005000000     2.026000000
C     2.193000000    -3.200000000     3.366000000
H     1.276000000    -3.686000000     3.688000000
C     1.578000000    -3.536000000     0.994000000
O     2.262000000    -4.280000000    -0.012000000
H     1.076000000    -2.695000000     0.494000000
O     0.593000000    -4.545000000     1.655000000
C    -0.686000000    -4.201000000     1.319000000
C    -1.539000000    -3.566000000     2.215000000
H    -1.155000000    -3.198000000     3.163000000
C    -2.821000000    -3.203000000     1.819000000
O    -3.566000000    -2.374000000     2.622000000
C    -3.289000000    -3.566000000     0.530000000
C    -4.637000000    -3.119000000     0.050000000
H    -5.014000000    -3.845000000    -0.673000000
C    -4.559000000    -1.703000000    -0.563000000
C    -4.379000000    -1.516000000    -1.921000000
H    -4.345000000    -2.369000000    -2.595000000
H    -5.332000000    -3.111000000     0.893000000
C    -2.456000000    -4.271000000    -0.289000000
H    -2.810000000    -4.539000000    -1.282000000
C    -1.173000000    -4.613000000     0.061000000
C    -0.252000000    -5.418000000    -0.831000000
H    -0.963000000    -5.975000000    -1.445000000
H     0.276000000    -6.138000000    -0.201000000
C     0.590000000    -4.579000000    -1.741000000
C     0.151000000    -4.121000000    -2.972000000
H    -0.839000000    -4.481000000    -3.242000000
C     1.846000000    -4.049000000    -1.312000000
C     2.660000000    -3.306000000    -2.096000000
H     3.672000000    -3.069000000    -1.781000000
C     2.217000000    -2.834000000    -3.331000000
O     2.904000000    -1.866000000    -4.044000000
C     2.499000000    -0.456000000    -3.741000000
C     3.697000000     0.449000000    -3.551000000
C     3.581000000     1.846000000    -3.814000000
H     2.663000000     2.250000000    -4.231000000
C     4.865000000    -0.012000000    -2.907000000
H     4.880000000    -1.028000000    -2.521000000
O     1.662000000    -0.031000000    -4.872000000
H     1.908000000    -0.436000000    -2.813000000
C     0.932000000    -3.156000000    -3.713000000
C     0.229000000    -2.544000000    -4.957000000
H    -0.520000000    -3.204000000    -5.401000000
H     1.056000000    -2.438000000    -5.663000000
C    -0.524000000    -1.185000000    -4.755000000
C    -1.853000000    -1.064000000    -4.533000000
H    -2.425000000    -1.988000000    -4.560000000
C     0.262000000    -0.032000000    -4.789000000
C    -0.269000000     1.208000000    -4.414000000
H     0.402000000     2.060000000    -4.347000000
C    -1.622000000     1.312000000    -4.127000000
O    -2.056000000     2.479000000    -3.581000000
C    -2.462000000     2.356000000    -2.207000000
C    -2.041000000     3.575000000    -1.424000000
C    -0.675000000     3.946000000    -1.454000000
H    -0.043000000     3.364000000    -2.119000000
C    -2.949000000     4.311000000    -0.686000000
H    -3.937000000     3.909000000    -0.476000000
O    -3.907000000     2.083000000    -2.110000000
H    -1.986000000     1.458000000    -1.786000000
C    -2.460000000     0.155000000    -4.189000000
C    -3.916000000     0.070000000    -3.976000000
H    -4.366000000    -0.800000000    -4.459000000
H    -4.431000000     1.002000000    -4.215000000
C    -4.255000000    -0.262000000    -2.505000000
C    -4.279000000     0.862000000    -1.655000000
C    -4.535000000     0.686000000    -0.287000000
H    -4.467000000     1.613000000     0.277000000
C    -4.790000000    -0.551000000     0.230000000
O    -4.824000000    -0.665000000     1.651000000
C    -3.578000000    -0.966000000     2.321000000
H    -2.695000000    -0.895000000     1.668000000
C    -3.204000000    -0.085000000     3.479000000
C    -2.542000000    -0.581000000     4.609000000
H    -2.215000000    -1.618000000     4.595000000
C    -3.709000000     1.266000000     3.455000000
H    -4.015000000     1.756000000     2.535000000
C    -3.496000000     2.065000000     4.631000000
O    -3.752000000     3.446000000     4.728000000
C    -2.858000000     1.521000000     5.725000000
H    -2.887000000     2.105000000     6.641000000
C    -2.339000000     0.231000000     5.739000000
O    -1.559000000    -0.236000000     6.797000000
C    -0.824000000    -1.403000000     6.635000000
C     0.544000000    -1.354000000     6.295000000
H     0.988000000    -0.366000000     6.203000000
C    -1.444000000    -2.609000000     6.883000000
H    -2.462000000    -2.653000000     7.263000000
C    -0.701000000    -3.854000000     6.654000000
H    -1.201000000    -4.801000000     6.843000000
C     0.619000000    -3.831000000     6.276000000
H     1.205000000    -4.725000000     6.080000000
C     1.217000000    -2.574000000     6.125000000
O     2.529000000    -2.538000000     5.778000000
C     2.951000000    -2.551000000     4.437000000
C     4.146000000    -1.978000000     4.029000000
H     4.780000000    -1.453000000     4.739000000
C     4.659000000    -1.984000000     2.707000000
O     5.950000000    -1.567000000     2.463000000
C     6.485000000    -1.581000000     1.177000000
C     6.394000000    -0.528000000     0.355000000
H     5.776000000     0.306000000     0.677000000
C     7.474000000    -2.581000000     0.878000000
H     7.672000000    -3.374000000     1.594000000
C     8.203000000    -2.530000000    -0.274000000
H     8.993000000    -3.237000000    -0.512000000
C     8.035000000    -1.498000000    -1.179000000
H     8.559000000    -1.470000000    -2.131000000
C     7.103000000    -0.542000000    -0.909000000
O     6.940000000     0.558000000    -1.755000000
C     5.870000000     0.887000000    -2.541000000
C     5.711000000     2.212000000    -2.867000000
H     6.537000000     2.870000000    -2.611000000
C     4.597000000     2.719000000    -3.528000000
O     4.612000000     4.046000000    -3.916000000
C     3.537000000     4.878000000    -3.584000000
C     2.810000000     4.745000000    -2.420000000
H     3.124000000     4.062000000    -1.635000000
C     2.965000000     5.585000000    -4.636000000
H     3.550000000     5.605000000    -5.552000000
C     1.804000000     6.359000000    -4.481000000
H     1.301000000     6.870000000    -5.298000000
C     1.250000000     6.362000000    -3.197000000
H     0.460000000     7.048000000    -2.903000000
C     1.696000000     5.498000000    -2.187000000
O     1.037000000     5.541000000    -1.012000000
C    -0.261000000     5.162000000    -0.884000000
C    -1.127000000     5.861000000    -0.150000000
H    -0.925000000     6.769000000     0.412000000
C    -2.500000000     5.412000000     0.018000000
O    -3.398000000     6.186000000     0.849000000
C    -4.171000000     5.527000000     1.752000000
C    -5.536000000     5.475000000     1.470000000
H    -5.913000000     5.982000000     0.586000000
C    -6.273000000     4.661000000     2.373000000
H    -7.305000000     4.371000000     2.196000000
C    -5.670000000     4.050000000     3.468000000
H    -6.214000000     3.336000000     4.082000000
C    -4.342000000     4.225000000     3.737000000
C    -3.531000000     4.901000000     2.850000000
H    -2.465000000     4.992000000     3.041000000
O     8.905000000     1.612000000     1.324000000
H     8.957000000     1.363000000     0.402000000
H     8.060000000     2.055000000     1.405000000
O     1.149000000     2.633000000     4.730000000
H     1.830000000     2.044000000     4.406000000
H     1.272000000     2.642000000     5.679000000
O     4.837000000    -1.742000000     8.310000000
H     4.250000000    -1.587000000     9.050000000
H     4.302000000    -2.218000000     7.675000000
O     4.578000000     4.312000000     3.598000000
H     4.437000000     3.404000000     3.332000000
H     3.939000000     4.460000000     4.295000000
O     9.702000000     3.358000000     3.147000000
H     8.878000000     3.223000000     3.616000000
H     9.609000000     2.841000000     2.347000000
O     9.004000000    -0.457000000     6.308000000
H     8.599000000    -0.011000000     5.564000000
H     8.665000000     0.004000000     7.076000000
O     1.239000000     6.191000000     3.212000000
H     1.295000000     5.376000000     2.712000000
H     2.028000000     6.194000000     3.754000000
O     6.626000000     5.914000000     4.804000000
H     7.355000000     6.031000000     4.194000000
H     5.982000000     5.405000000     4.312000000
O     7.149000000     0.252000000     8.097000000
H     7.196000000     0.307000000     9.051000000
H     6.452000000    -0.381000000     7.927000000
O     6.569000000     3.032000000     1.217000000
H     6.044000000     3.829000000     1.289000000
H     6.017000000     2.347000000     1.592000000
O     7.124000000     2.915000000     4.456000000
H     6.392000000     3.496000000     4.666000000
H     6.717000000     2.160000000     4.031000000
O     0.930000000     3.604000000     2.342000000
H     0.678000000     3.439000000     3.250000000
H     0.572000000     2.862000000     1.855000000
O     5.415000000     4.144000000     8.278000000
H     6.001000000     3.676000000     8.873000000
H     5.422000000     3.623000000     7.475000000
O     7.870000000     0.099000000     3.962000000
H     6.960000000    -0.058000000     3.709000000
H     8.337000000     0.195000000     3.132000000
O     3.218000000     2.063000000     8.544000000
H     3.642000000     2.192000000     7.696000000
H     3.941000000     1.931000000     9.157000000
O     4.898000000     5.264000000     0.989000000
H     4.600000000     6.172000000     1.032000000
H     4.673000000     4.897000000     1.844000000
O     2.849000000     5.509000000     5.677000000
H     2.150000000     4.968000000     6.044000000
H     3.557000000     5.455000000     6.318000000
O     4.803000000     2.182000000     6.435000000
H     4.404000000     1.567000000     5.819000000
H     5.685000000     1.839000000     6.578000000
O    -0.630000000     5.148000000     5.055000000
H    -0.119000000     4.358000000     5.230000000
H    -0.157000000     5.589000000     4.350000000
