201
-1250.39531
C     3.246000000    -3.621000000     0.139000000
H     2.963000000    -3.258000000    -0.846000000
C     2.268000000    -4.012000000     1.056000000
C     2.593000000    -4.298000000     2.396000000
H     1.786000000    -4.416000000     3.115000000
C     0.835000000    -4.138000000     0.616000000
O     0.734000000    -4.838000000    -0.621000000
H     0.675000000    -3.064000000     0.441000000
O    -0.063000000    -4.663000000     1.631000000
C    -1.246000000    -4.015000000     1.858000000
C    -1.420000000    -3.364000000     3.059000000
H    -0.570000000    -3.249000000     3.727000000
C    -2.600000000    -2.640000000     3.257000000
O    -2.600000000    -1.666000000     4.245000000
C    -3.629000000    -2.588000000     2.344000000
C    -4.849000000    -1.642000000     2.425000000
H    -5.756000000    -2.153000000     2.096000000
C    -4.590000000    -0.400000000     1.613000000
C    -5.080000000    -0.247000000     0.315000000
H    -5.675000000    -1.048000000    -0.115000000
H    -4.893000000    -1.387000000     3.485000000
C    -3.491000000    -3.409000000     1.160000000
H    -4.369000000    -3.444000000     0.520000000
C    -2.278000000    -4.126000000     0.951000000
C    -2.133000000    -4.944000000    -0.319000000
H    -3.134000000    -5.242000000    -0.638000000
H    -1.690000000    -5.925000000    -0.131000000
C    -1.434000000    -4.222000000    -1.488000000
C    -2.179000000    -3.608000000    -2.512000000
H    -3.264000000    -3.636000000    -2.470000000
C    -0.026000000    -4.262000000    -1.622000000
C     0.644000000    -3.618000000    -2.622000000
H     1.726000000    -3.561000000    -2.709000000
C    -0.144000000    -2.868000000    -3.571000000
O     0.506000000    -2.070000000    -4.374000000
C     0.591000000    -0.618000000    -4.025000000
C     1.992000000    -0.084000000    -4.384000000
C     2.061000000     1.256000000    -4.915000000
H     1.218000000     1.934000000    -5.015000000
C     3.240000000    -0.748000000    -4.110000000
H     3.232000000    -1.627000000    -3.471000000
O    -0.390000000    -0.004000000    -4.810000000
H     0.312000000    -0.396000000    -2.984000000
C    -1.530000000    -2.827000000    -3.467000000
C    -2.452000000    -2.093000000    -4.452000000
H    -3.430000000    -2.569000000    -4.354000000
H    -2.126000000    -2.125000000    -5.494000000
C    -2.587000000    -0.673000000    -4.100000000
C    -3.786000000    -0.318000000    -3.412000000
H    -4.594000000    -1.043000000    -3.352000000
C    -1.582000000     0.249000000    -4.171000000
C    -1.781000000     1.567000000    -3.638000000
H    -1.031000000     2.340000000    -3.790000000
C    -2.986000000     1.896000000    -3.005000000
O    -2.959000000     3.140000000    -2.494000000
C    -2.566000000     3.186000000    -1.122000000
C    -1.673000000     4.339000000    -0.845000000
C    -0.653000000     4.710000000    -1.685000000
H    -0.515000000     4.168000000    -2.617000000
C    -1.787000000     5.033000000     0.353000000
H    -2.596000000     4.844000000     1.054000000
O    -3.765000000     3.220000000    -0.319000000
H    -2.056000000     2.293000000    -0.731000000
C    -3.982000000     0.914000000    -2.832000000
C    -5.135000000     1.166000000    -1.816000000
H    -6.003000000     0.534000000    -2.011000000
H    -5.572000000     2.144000000    -2.027000000
C    -4.731000000     0.961000000    -0.350000000
C    -4.064000000     2.056000000     0.391000000
C    -3.621000000     1.850000000     1.673000000
H    -3.039000000     2.617000000     2.176000000
C    -3.853000000     0.637000000     2.266000000
O    -3.360000000     0.428000000     3.503000000
C    -2.230000000    -0.362000000     3.633000000
H    -1.691000000    -0.467000000     2.680000000
C    -1.237000000     0.331000000     4.514000000
C    -0.094000000    -0.376000000     4.939000000
H    -0.027000000    -1.458000000     4.859000000
C    -1.313000000     1.680000000     4.820000000
H    -2.155000000     2.243000000     4.427000000
C    -0.316000000     2.323000000     5.460000000
O    -0.344000000     3.702000000     5.657000000
C     0.828000000     1.659000000     5.867000000
H     1.562000000     2.149000000     6.501000000
C     0.960000000     0.312000000     5.556000000
O     2.167000000    -0.294000000     5.932000000
C     2.240000000    -1.670000000     5.953000000
C     3.287000000    -2.184000000     5.146000000
H     3.845000000    -1.495000000     4.517000000
C     1.474000000    -2.511000000     6.770000000
H     0.752000000    -2.130000000     7.487000000
C     1.824000000    -3.864000000     6.830000000
H     1.335000000    -4.567000000     7.498000000
C     2.728000000    -4.414000000     5.907000000
H     2.933000000    -5.482000000     5.917000000
C     3.413000000    -3.615000000     5.033000000
O     4.290000000    -4.112000000     4.138000000
C     3.910000000    -4.146000000     2.834000000
C     4.907000000    -3.790000000     1.946000000
H     5.918000000    -3.501000000     2.218000000
C     4.564000000    -3.469000000     0.618000000
O     5.600000000    -2.998000000    -0.111000000
C     5.674000000    -3.061000000    -1.519000000
C     5.795000000    -1.919000000    -2.309000000
H     5.900000000    -0.920000000    -1.893000000
C     5.820000000    -4.313000000    -2.128000000
H     5.737000000    -5.204000000    -1.511000000
C     5.886000000    -4.421000000    -3.530000000
H     5.835000000    -5.350000000    -4.092000000
C     5.856000000    -3.289000000    -4.293000000
H     5.867000000    -3.470000000    -5.365000000
C     5.823000000    -2.027000000    -3.683000000
O     5.661000000    -0.926000000    -4.504000000
C     4.434000000    -0.255000000    -4.616000000
C     4.496000000     1.100000000    -5.037000000
H     5.432000000     1.532000000    -5.382000000
C     3.325000000     1.856000000    -5.115000000
O     3.471000000     3.162000000    -5.452000000
C     2.542000000     4.115000000    -5.250000000
C     2.367000000     4.518000000    -3.912000000
H     2.981000000     4.004000000    -3.176000000
C     1.605000000     4.536000000    -6.203000000
H     1.640000000     4.079000000    -7.189000000
C     0.712000000     5.552000000    -5.879000000
H     0.050000000     5.815000000    -6.700000000
C     0.589000000     6.058000000    -4.587000000
H    -0.191000000     6.776000000    -4.348000000
C     1.382000000     5.487000000    -3.576000000
O     1.328000000     6.024000000    -2.331000000
C     0.231000000     5.796000000    -1.442000000
C     0.213000000     6.340000000    -0.150000000
H     0.952000000     7.106000000     0.074000000
C    -0.811000000     5.983000000     0.704000000
O    -0.935000000     6.683000000     1.881000000
C    -1.414000000     6.135000000     3.125000000
C    -2.761000000     6.238000000     3.434000000
H    -3.356000000     6.834000000     2.746000000
C    -3.339000000     5.506000000     4.490000000
H    -4.398000000     5.520000000     4.735000000
C    -2.537000000     4.752000000     5.304000000
H    -2.947000000     4.265000000     6.185000000
C    -1.165000000     4.655000000     5.050000000
C    -0.633000000     5.351000000     4.008000000
H     0.432000000     5.177000000     3.882000000
O     3.268000000     5.803000000     2.867000000
H     2.839000000     6.390000000     3.488000000
H     3.362000000     4.977000000     3.342000000
O     4.812000000     0.587000000     6.786000000
H     5.671000000     0.172000000     6.719000000
H     4.650000000     0.945000000     5.913000000
O     7.088000000     0.075000000     1.533000000
H     7.529000000    -0.765000000     1.662000000
H     7.587000000     0.692000000     2.067000000
O     5.661000000     4.369000000     1.951000000
H     5.108000000     4.519000000     2.717000000
H     6.385000000     3.835000000     2.279000000
O     5.414000000     5.857000000     6.092000000
H     4.510000000     5.550000000     6.174000000
H     5.885000000     5.115000000     5.713000000
O     4.289000000    -1.395000000     8.971000000
H     5.228000000    -1.555000000     8.872000000
H     4.039000000    -0.934000000     8.170000000
O     7.244000000     6.594000000     3.103000000
H     6.456000000     6.167000000     2.767000000
H     7.518000000     6.045000000     3.838000000
O     6.422000000     3.681000000     4.900000000
H     5.610000000     3.200000000     4.738000000
H     7.115000000     3.039000000     4.750000000
O     8.067000000     2.629000000     2.647000000
H     8.884000000     2.406000000     2.202000000
H     8.332000000     3.214000000     3.357000000
O     6.667000000     3.883000000     8.144000000
H     6.192000000     4.660000000     7.851000000
H     6.961000000     3.463000000     7.336000000
O     6.471000000     3.643000000    -0.677000000
H     6.004000000     3.904000000     0.117000000
H     6.400000000     2.689000000    -0.693000000
O     3.760000000     2.715000000     8.100000000
H     4.570000000     2.916000000     8.570000000
H     3.944000000     1.891000000     7.649000000
O     8.714000000     2.566000000     6.064000000
H     8.701000000     3.412000000     6.512000000
H     9.576000000     2.527000000     5.650000000
O     2.916000000     4.598000000     6.130000000
H     2.972000000     4.078000000     5.328000000
H     3.231000000     4.012000000     6.818000000
O     3.589000000     6.549000000     0.034000000
H     3.069000000     6.117000000    -0.644000000
H     3.304000000     6.141000000     0.851000000
O     0.716000000     5.440000000     7.826000000
H     0.069000000     4.895000000     7.378000000
H     1.500000000     5.377000000     7.281000000
O     6.253000000    -0.343000000     4.240000000
H     6.351000000    -0.643000000     3.337000000
H     5.595000000     0.351000000     4.192000000
O     5.159000000     0.751000000    -0.065000000
H     5.857000000     0.511000000     0.545000000
H     4.350000000     0.542000000     0.403000000
O     7.280000000    -1.274000000     6.575000000
H     6.777000000    -2.010000000     6.923000000
H     7.058000000    -1.250000000     5.645000000
