201
-1261.02305
C     2.719000000    -4.301000000     1.316000000
H     2.843000000    -4.463000000     0.248000000
C     1.506000000    -4.230000000     1.917000000
C     1.375000000    -3.993000000     3.295000000
H     0.371000000    -3.893000000     3.699000000
C     0.308000000    -4.140000000     0.969000000
O     0.466000000    -4.939000000    -0.229000000
H     0.260000000    -3.054000000     0.799000000
O    -0.848000000    -4.707000000     1.650000000
C    -2.030000000    -3.943000000     1.487000000
C    -2.417000000    -3.078000000     2.507000000
H    -1.766000000    -2.932000000     3.365000000
C    -3.469000000    -2.171000000     2.370000000
O    -3.558000000    -1.184000000     3.350000000
C    -4.150000000    -2.141000000     1.176000000
C    -5.264000000    -1.170000000     0.979000000
H    -6.045000000    -1.647000000     0.382000000
C    -4.702000000     0.119000000     0.280000000
C    -4.724000000     0.237000000    -1.120000000
H    -5.160000000    -0.569000000    -1.705000000
H    -5.715000000    -0.833000000     1.914000000
C    -3.860000000    -3.056000000     0.128000000
H    -4.382000000    -2.984000000    -0.822000000
C    -2.789000000    -4.007000000     0.304000000
C    -2.396000000    -4.881000000    -0.854000000
H    -3.314000000    -5.090000000    -1.408000000
H    -2.130000000    -5.901000000    -0.566000000
C    -1.314000000    -4.257000000    -1.659000000
C    -1.693000000    -3.667000000    -2.840000000
H    -2.735000000    -3.622000000    -3.148000000
C     0.045000000    -4.358000000    -1.342000000
C     0.952000000    -3.906000000    -2.219000000
H     1.978000000    -4.001000000    -1.873000000
C     0.606000000    -3.111000000    -3.217000000
O     1.637000000    -2.391000000    -3.791000000
C     1.596000000    -0.936000000    -3.760000000
C     2.922000000    -0.332000000    -3.328000000
C     3.281000000     1.043000000    -3.656000000
H     2.604000000     1.805000000    -4.035000000
C     3.895000000    -1.167000000    -2.733000000
H     3.717000000    -2.229000000    -2.585000000
O     1.029000000    -0.400000000    -4.996000000
H     0.856000000    -0.745000000    -2.969000000
C    -0.720000000    -3.010000000    -3.673000000
C    -1.098000000    -2.279000000    -4.943000000
H    -2.029000000    -2.675000000    -5.354000000
H    -0.314000000    -2.446000000    -5.685000000
C    -1.323000000    -0.820000000    -4.692000000
C    -2.572000000    -0.387000000    -4.161000000
H    -3.382000000    -1.110000000    -4.113000000
C    -0.259000000     0.074000000    -4.713000000
C    -0.411000000     1.365000000    -4.413000000
H     0.365000000     2.123000000    -4.490000000
C    -1.624000000     1.828000000    -4.004000000
O    -1.721000000     3.096000000    -3.457000000
C    -1.717000000     3.220000000    -1.977000000
C    -0.856000000     4.453000000    -1.690000000
C     0.041000000     4.989000000    -2.594000000
H     0.283000000     4.467000000    -3.516000000
C    -0.970000000     5.020000000    -0.449000000
H    -1.680000000     4.565000000     0.238000000
O    -3.034000000     3.425000000    -1.444000000
H    -1.304000000     2.317000000    -1.504000000
C    -2.744000000     0.959000000    -3.877000000
C    -4.057000000     1.501000000    -3.234000000
H    -4.867000000     0.896000000    -3.646000000
H    -4.333000000     2.483000000    -3.624000000
C    -4.137000000     1.346000000    -1.717000000
C    -3.588000000     2.311000000    -0.895000000
C    -3.669000000     2.225000000     0.508000000
H    -3.401000000     3.111000000     1.078000000
C    -4.185000000     1.075000000     1.135000000
O    -4.101000000     0.964000000     2.519000000
C    -3.053000000     0.081000000     2.922000000
H    -2.358000000    -0.039000000     2.078000000
C    -2.242000000     0.820000000     4.022000000
C    -1.785000000     0.038000000     5.094000000
H    -1.829000000    -1.048000000     5.051000000
C    -2.007000000     2.168000000     3.963000000
H    -2.557000000     2.752000000     3.229000000
C    -1.255000000     2.788000000     4.949000000
O    -1.114000000     4.161000000     5.077000000
C    -0.763000000     2.024000000     5.967000000
H    -0.040000000     2.339000000     6.715000000
C    -1.037000000     0.674000000     6.108000000
O    -0.367000000    -0.074000000     7.019000000
C     0.022000000    -1.396000000     6.976000000
C     1.138000000    -1.844000000     6.221000000
H     1.749000000    -1.135000000     5.667000000
C    -0.874000000    -2.340000000     7.528000000
H    -1.750000000    -1.985000000     8.064000000
C    -0.662000000    -3.722000000     7.340000000
H    -1.365000000    -4.483000000     7.670000000
C     0.402000000    -4.161000000     6.626000000
H     0.729000000    -5.198000000     6.617000000
C     1.328000000    -3.211000000     6.152000000
O     2.435000000    -3.652000000     5.443000000
C     2.472000000    -4.028000000     4.149000000
C     3.715000000    -4.173000000     3.547000000
H     4.565000000    -4.084000000     4.219000000
C     3.859000000    -4.250000000     2.157000000
O     5.087000000    -4.569000000     1.661000000
C     5.404000000    -4.197000000     0.390000000
C     5.699000000    -2.904000000    -0.078000000
H     5.552000000    -2.106000000     0.645000000
C     5.410000000    -5.204000000    -0.565000000
H     5.192000000    -6.219000000    -0.243000000
C     5.741000000    -5.028000000    -1.899000000
H     5.965000000    -5.834000000    -2.592000000
C     5.903000000    -3.715000000    -2.417000000
H     6.071000000    -3.427000000    -3.452000000
C     5.884000000    -2.671000000    -1.437000000
O     6.086000000    -1.364000000    -1.806000000
C     5.169000000    -0.607000000    -2.477000000
C     5.471000000     0.701000000    -2.689000000
H     6.439000000     1.006000000    -2.298000000
C     4.583000000     1.520000000    -3.342000000
O     4.892000000     2.893000000    -3.337000000
C     4.109000000     3.864000000    -3.997000000
C     3.400000000     4.810000000    -3.220000000
H     3.523000000     4.944000000    -2.148000000
C     3.865000000     3.727000000    -5.334000000
H     4.358000000     2.921000000    -5.871000000
C     2.914000000     4.516000000    -5.972000000
H     2.735000000     4.314000000    -7.025000000
C     2.279000000     5.509000000    -5.303000000
H     1.556000000     6.123000000    -5.834000000
C     2.484000000     5.637000000    -3.905000000
O     1.676000000     6.536000000    -3.262000000
C     0.807000000     6.128000000    -2.263000000
C     0.572000000     6.760000000    -1.067000000
H     1.036000000     7.728000000    -0.899000000
C    -0.296000000     6.178000000    -0.098000000
O    -0.511000000     6.850000000     1.134000000
C    -1.290000000     6.315000000     2.200000000
C    -2.666000000     6.564000000     2.182000000
H    -2.993000000     7.219000000     1.379000000
C    -3.536000000     6.077000000     3.174000000
H    -4.601000000     6.291000000     3.163000000
C    -2.956000000     5.263000000     4.148000000
H    -3.536000000     4.690000000     4.868000000
C    -1.582000000     5.012000000     4.092000000
C    -0.686000000     5.545000000     3.143000000
H     0.367000000     5.273000000     3.136000000
O     3.001000000     0.561000000     7.597000000
H     3.408000000     0.910000000     6.804000000
H     3.299000000    -0.347000000     7.640000000
O     4.218000000    -0.130000000    10.279000000
H     3.690000000     0.306000000     9.611000000
H     3.874000000     0.201000000    11.109000000
O     3.456000000     4.577000000     1.407000000
H     4.317000000     4.565000000     0.990000000
H     2.871000000     4.180000000     0.761000000
O     6.466000000     1.458000000     1.414000000
H     6.150000000     2.361000000     1.447000000
H     5.861000000     0.972000000     1.974000000
O     8.789000000     0.425000000     0.109000000
H     9.325000000     0.615000000     0.879000000
H     7.937000000     0.812000000     0.309000000
O     7.651000000     0.011000000     6.832000000
H     7.047000000    -0.483000000     6.279000000
H     8.173000000    -0.658000000     7.275000000
O     6.151000000     4.191000000     0.170000000
H     6.243000000     4.906000000    -0.460000000
H     7.036000000     3.837000000     0.260000000
O     8.294000000     0.939000000     4.233000000
H     7.611000000     1.594000000     4.092000000
H     8.311000000     0.810000000     5.181000000
O     5.717000000     1.974000000     7.657000000
H     5.656000000     1.808000000     6.716000000
H     6.470000000     1.457000000     7.942000000
O     6.335000000     2.865000000     4.593000000
H     5.741000000     3.610000000     4.680000000
H     5.757000000     2.107000000     4.508000000
O     1.768000000     2.923000000     9.163000000
H     1.882000000     2.119000000     8.655000000
H     2.655000000     3.266000000     9.270000000
O     3.871000000    -1.924000000     7.500000000
H     3.515000000    -2.273000000     8.317000000
H     3.545000000    -2.518000000     6.824000000
O     3.479000000     3.665000000     5.242000000
H     3.300000000     2.776000000     4.935000000
H     3.253000000     3.647000000     6.172000000
O     3.845000000     5.775000000     3.530000000
H     3.867000000     5.255000000     2.727000000
H     3.596000000     5.151000000     4.213000000
O     6.716000000    -3.872000000     5.590000000
H     7.580000000    -3.636000000     5.926000000
H     6.423000000    -3.093000000     5.116000000
O     6.410000000    -1.308000000     4.514000000
H     7.096000000    -1.288000000     3.846000000
H     5.785000000    -0.639000000     4.235000000
O     2.417000000     2.775000000    -0.443000000
H     1.689000000     2.163000000    -0.333000000
H     3.196000000     2.219000000    -0.459000000
O     4.354000000     3.376000000     9.329000000
H     4.878000000     3.194000000    10.109000000
H     4.805000000     2.912000000     8.624000000
O     6.239000000    -1.582000000     8.773000000
H     5.593000000    -2.143000000     8.344000000
H     5.723000000    -0.876000000     9.161000000
