201
-1289.91725
C     2.577000000    -4.085000000     1.479000000
H     2.657000000    -4.073000000     0.395000000
C     1.325000000    -4.041000000     2.004000000
C     1.104000000    -3.999000000     3.388000000
H     0.079000000    -3.998000000     3.751000000
C     0.118000000    -4.074000000     1.057000000
O     0.392000000    -4.846000000    -0.119000000
H    -0.062000000    -3.024000000     0.783000000
O    -1.043000000    -4.601000000     1.729000000
C    -2.222000000    -3.896000000     1.479000000
C    -2.621000000    -2.974000000     2.493000000
H    -2.126000000    -2.831000000     3.451000000
C    -3.550000000    -2.026000000     2.189000000
O    -3.841000000    -1.008000000     3.091000000
C    -4.247000000    -2.032000000     0.964000000
C    -5.392000000    -1.026000000     0.727000000
H    -6.095000000    -1.507000000     0.045000000
C    -4.789000000     0.200000000     0.050000000
C    -4.825000000     0.351000000    -1.356000000
H    -5.263000000    -0.387000000    -2.023000000
H    -5.906000000    -0.816000000     1.667000000
C    -3.983000000    -3.022000000     0.052000000
H    -4.484000000    -3.078000000    -0.911000000
C    -2.944000000    -3.968000000     0.291000000
C    -2.509000000    -4.819000000    -0.923000000
H    -3.418000000    -4.932000000    -1.517000000
H    -2.185000000    -5.813000000    -0.606000000
C    -1.391000000    -4.207000000    -1.694000000
C    -1.699000000    -3.505000000    -2.864000000
H    -2.730000000    -3.333000000    -3.162000000
C    -0.024000000    -4.270000000    -1.332000000
C     0.960000000    -3.694000000    -2.134000000
H     1.983000000    -3.710000000    -1.768000000
C     0.600000000    -3.020000000    -3.328000000
O     1.608000000    -2.359000000    -4.000000000
C     1.704000000    -0.931000000    -3.940000000
C     3.121000000    -0.516000000    -3.736000000
C     3.549000000     0.721000000    -4.226000000
H     2.815000000     1.326000000    -4.752000000
C     3.991000000    -1.205000000    -2.914000000
H     3.645000000    -2.124000000    -2.449000000
O     1.079000000    -0.344000000    -5.109000000
H     1.152000000    -0.601000000    -3.047000000
C    -0.765000000    -2.994000000    -3.677000000
C    -1.228000000    -2.280000000    -4.942000000
H    -2.228000000    -2.646000000    -5.185000000
H    -0.599000000    -2.420000000    -5.824000000
C    -1.324000000    -0.852000000    -4.646000000
C    -2.471000000    -0.272000000    -4.165000000
H    -3.307000000    -0.940000000    -3.974000000
C    -0.235000000     0.028000000    -4.847000000
C    -0.374000000     1.368000000    -4.485000000
H     0.470000000     2.048000000    -4.560000000
C    -1.541000000     1.913000000    -3.948000000
O    -1.526000000     3.188000000    -3.492000000
C    -1.516000000     3.297000000    -2.044000000
C    -0.652000000     4.439000000    -1.549000000
C     0.588000000     4.550000000    -2.105000000
H     0.836000000     3.844000000    -2.894000000
C    -0.990000000     5.297000000    -0.488000000
H    -1.974000000     5.200000000    -0.038000000
O    -2.869000000     3.481000000    -1.596000000
H    -1.208000000     2.299000000    -1.699000000
C    -2.674000000     1.064000000    -3.831000000
C    -3.975000000     1.636000000    -3.410000000
H    -4.743000000     1.138000000    -4.006000000
H    -4.095000000     2.706000000    -3.591000000
C    -4.087000000     1.392000000    -1.902000000
C    -3.550000000     2.409000000    -1.076000000
C    -3.662000000     2.316000000     0.298000000
H    -3.164000000     3.107000000     0.853000000
C    -4.169000000     1.161000000     0.848000000
O    -4.067000000     1.046000000     2.177000000
C    -3.122000000     0.185000000     2.736000000
H    -2.402000000    -0.007000000     1.927000000
C    -2.406000000     0.768000000     3.911000000
C    -1.943000000    -0.114000000     4.951000000
H    -2.093000000    -1.191000000     4.956000000
C    -2.137000000     2.107000000     3.950000000
H    -2.494000000     2.624000000     3.063000000
C    -1.306000000     2.625000000     4.987000000
O    -1.045000000     3.950000000     5.010000000
C    -0.968000000     1.803000000     6.045000000
H    -0.423000000     2.306000000     6.840000000
C    -1.205000000     0.408000000     6.048000000
O    -0.693000000    -0.298000000     7.105000000
C    -0.434000000    -1.671000000     6.996000000
C     0.601000000    -2.097000000     6.227000000
H     1.173000000    -1.369000000     5.656000000
C    -1.124000000    -2.547000000     7.822000000
H    -1.967000000    -2.190000000     8.409000000
C    -0.820000000    -3.916000000     7.773000000
H    -1.287000000    -4.716000000     8.342000000
C     0.230000000    -4.360000000     6.948000000
H     0.594000000    -5.383000000     6.990000000
C     0.966000000    -3.425000000     6.230000000
O     2.149000000    -3.777000000     5.634000000
C     2.214000000    -4.012000000     4.248000000
C     3.472000000    -4.147000000     3.736000000
H     4.296000000    -4.077000000     4.441000000
C     3.649000000    -4.091000000     2.350000000
O     4.915000000    -3.905000000     1.908000000
C     5.279000000    -3.829000000     0.608000000
C     5.763000000    -2.658000000     0.009000000
H     5.947000000    -1.768000000     0.606000000
C     5.155000000    -4.983000000    -0.203000000
H     4.763000000    -5.909000000     0.210000000
C     5.338000000    -4.953000000    -1.546000000
H     5.137000000    -5.843000000    -2.136000000
C     5.771000000    -3.721000000    -2.161000000
H     5.891000000    -3.699000000    -3.241000000
C     6.022000000    -2.612000000    -1.348000000
O     6.246000000    -1.320000000    -1.849000000
C     5.274000000    -0.652000000    -2.653000000
C     5.680000000     0.542000000    -3.242000000
H     6.648000000     1.019000000    -3.106000000
C     4.848000000     1.202000000    -4.090000000
O     5.274000000     2.464000000    -4.553000000
C     4.425000000     3.473000000    -4.594000000
C     4.128000000     4.060000000    -3.388000000
H     4.516000000     3.648000000    -2.460000000
C     3.899000000     3.931000000    -5.813000000
H     4.067000000     3.382000000    -6.736000000
C     2.965000000     4.981000000    -5.710000000
H     2.363000000     5.330000000    -6.545000000
C     2.670000000     5.665000000    -4.578000000
H     1.952000000     6.476000000    -4.487000000
C     3.252000000     5.132000000    -3.358000000
O     2.758000000     5.619000000    -2.162000000
C     1.458000000     5.570000000    -1.704000000
C     1.096000000     6.361000000    -0.651000000
H     1.820000000     7.008000000    -0.161000000
C    -0.134000000     6.208000000    -0.006000000
O    -0.393000000     6.963000000     1.181000000
C    -1.152000000     6.388000000     2.198000000
C    -2.541000000     6.760000000     2.211000000
H    -2.874000000     7.418000000     1.412000000
C    -3.368000000     6.224000000     3.165000000
H    -4.424000000     6.477000000     3.207000000
C    -2.779000000     5.387000000     4.163000000
H    -3.353000000     5.003000000     5.002000000
C    -1.460000000     4.887000000     4.024000000
C    -0.652000000     5.372000000     2.991000000
H     0.388000000     5.078000000     2.880000000
O     5.103000000     7.061000000     5.405000000
H     4.613000000     6.645000000     4.696000000
H     4.430000000     7.363000000     6.016000000
O     3.541000000     0.643000000     6.456000000
H     3.305000000     0.998000000     5.600000000
H     4.228000000     1.228000000     6.777000000
O     4.734000000     4.728000000     1.154000000
H     5.491000000     4.391000000     1.631000000
H     4.403000000     3.975000000     0.665000000
O     5.788000000     0.937000000     0.848000000
H     5.127000000     0.962000000     0.157000000
H     5.293000000     0.763000000     1.648000000
O     8.493000000     0.430000000     1.254000000
H     7.561000000     0.396000000     1.038000000
H     8.522000000     0.335000000     2.206000000
O     7.130000000     4.127000000     2.698000000
H     7.822000000     3.475000000     2.584000000
H     7.512000000     4.781000000     3.284000000
O     8.363000000     0.286000000     3.999000000
H     7.533000000     0.035000000     4.404000000
H     8.975000000     0.358000000     4.732000000
O     7.092000000     1.760000000     7.266000000
H     6.852000000     1.976000000     6.365000000
H     8.044000000     1.858000000     7.289000000
O     5.606000000     3.025000000     4.813000000
H     6.015000000     3.390000000     4.028000000
H     4.969000000     2.394000000     4.479000000
O     1.830000000     2.485000000     7.837000000
H     2.078000000     2.219000000     8.722000000
H     1.714000000     1.662000000     7.363000000
O     4.332000000    -2.169000000     7.052000000
H     3.760000000    -2.762000000     7.539000000
H     3.855000000    -1.339000000     7.032000000
O     1.786000000     4.324000000     4.871000000
H     2.169000000     3.481000000     4.627000000
H     0.984000000     4.095000000     5.342000000
O     2.818000000     6.894000000     6.949000000
H     2.986000000     6.001000000     6.646000000
H     2.051000000     7.176000000     6.450000000
O     3.181000000     6.391000000     3.252000000
H     3.694000000     5.974000000     2.560000000
H     2.740000000     5.665000000     3.693000000
O     7.734000000    -2.365000000     2.877000000
H     8.413000000    -1.800000000     3.246000000
H     6.915000000    -1.902000000     3.054000000
O     4.033000000     4.321000000     6.952000000
H     3.327000000     3.676000000     7.005000000
H     4.503000000     4.096000000     6.150000000
O     5.932000000    -0.784000000     4.695000000
H     5.534000000    -1.157000000     5.482000000
H     5.195000000    -0.424000000     4.202000000
O     3.084000000     3.097000000    -0.265000000
H     2.650000000     2.903000000     0.567000000
H     2.433000000     3.589000000    -0.765000000
O     0.383000000     4.711000000     7.686000000
H     0.965000000     5.256000000     8.216000000
H     0.770000000     3.837000000     7.728000000
