201
-1233.24252
C     3.369000000    -3.014000000     2.115000000
H     3.407000000    -3.364000000     1.087000000
C     2.179000000    -3.223000000     2.825000000
C     2.095000000    -2.830000000     4.185000000
H     1.272000000    -3.074000000     4.852000000
C     0.971000000    -3.744000000     2.014000000
O     1.238000000    -4.800000000     1.062000000
H     0.583000000    -2.883000000     1.451000000
O    -0.041000000    -4.233000000     2.904000000
C    -1.349000000    -3.823000000     2.601000000
C    -1.814000000    -2.723000000     3.411000000
H    -1.245000000    -2.252000000     4.209000000
C    -3.057000000    -2.186000000     3.196000000
O    -3.358000000    -0.984000000     3.675000000
C    -3.813000000    -2.643000000     2.085000000
C    -5.115000000    -1.965000000     1.543000000
H    -5.776000000    -2.719000000     1.112000000
C    -4.791000000    -0.795000000     0.508000000
C    -4.941000000    -0.942000000    -0.888000000
H    -5.338000000    -1.925000000    -1.129000000
H    -5.731000000    -1.569000000     2.353000000
C    -3.329000000    -3.694000000     1.284000000
H    -3.856000000    -4.003000000     0.385000000
C    -2.117000000    -4.277000000     1.570000000
C    -1.488000000    -5.297000000     0.604000000
H    -2.294000000    -5.908000000     0.194000000
H    -0.933000000    -5.991000000     1.239000000
C    -0.601000000    -4.640000000    -0.450000000
C    -1.158000000    -4.383000000    -1.668000000
H    -2.232000000    -4.455000000    -1.823000000
C     0.770000000    -4.563000000    -0.176000000
C     1.577000000    -4.172000000    -1.203000000
H     2.636000000    -3.952000000    -1.098000000
C     1.008000000    -3.752000000    -2.345000000
O     1.878000000    -3.141000000    -3.249000000
C     1.723000000    -1.715000000    -3.431000000
C     3.065000000    -1.011000000    -3.640000000
C     3.041000000     0.399000000    -3.906000000
H     2.130000000     0.892000000    -4.235000000
C     4.235000000    -1.567000000    -3.269000000
H     4.256000000    -2.643000000    -3.121000000
O     0.862000000    -1.335000000    -4.518000000
H     1.272000000    -1.237000000    -2.549000000
C    -0.356000000    -3.868000000    -2.651000000
C    -0.870000000    -3.519000000    -4.053000000
H    -1.662000000    -4.235000000    -4.285000000
H    -0.118000000    -3.655000000    -4.833000000
C    -1.332000000    -2.151000000    -3.986000000
C    -2.667000000    -1.893000000    -3.624000000
H    -3.377000000    -2.663000000    -3.332000000
C    -0.469000000    -1.129000000    -4.348000000
C    -0.907000000     0.139000000    -4.436000000
H    -0.194000000     0.884000000    -4.781000000
C    -2.275000000     0.443000000    -4.147000000
O    -2.485000000     1.764000000    -4.080000000
C    -2.427000000     2.313000000    -2.807000000
C    -1.923000000     3.780000000    -2.800000000
C    -0.847000000     4.064000000    -3.585000000
H    -0.397000000     3.296000000    -4.210000000
C    -2.465000000     4.728000000    -1.941000000
H    -3.175000000     4.523000000    -1.144000000
O    -3.677000000     2.221000000    -2.110000000
H    -1.638000000     1.761000000    -2.275000000
C    -3.154000000    -0.581000000    -3.797000000
C    -4.501000000    -0.236000000    -3.365000000
H    -5.124000000    -1.071000000    -3.691000000
H    -4.897000000     0.610000000    -3.930000000
C    -4.604000000     0.026000000    -1.809000000
C    -4.056000000     1.197000000    -1.315000000
C    -3.974000000     1.418000000     0.034000000
H    -3.655000000     2.380000000     0.429000000
C    -4.328000000     0.458000000     0.961000000
O    -4.141000000     0.731000000     2.265000000
C    -3.002000000     0.216000000     2.954000000
H    -2.238000000    -0.078000000     2.219000000
C    -2.354000000     1.270000000     3.816000000
C    -1.765000000     0.940000000     5.047000000
H    -1.813000000    -0.024000000     5.546000000
C    -2.155000000     2.472000000     3.213000000
H    -2.607000000     2.822000000     2.289000000
C    -1.336000000     3.400000000     3.832000000
O    -1.176000000     4.564000000     3.165000000
C    -0.695000000     3.108000000     5.013000000
H    -0.104000000     3.892000000     5.477000000
C    -0.907000000     1.860000000     5.656000000
O    -0.295000000     1.562000000     6.836000000
C     0.251000000     0.371000000     7.124000000
C     1.335000000    -0.107000000     6.468000000
H     1.776000000     0.523000000     5.700000000
C    -0.377000000    -0.382000000     8.094000000
H    -1.267000000    -0.006000000     8.592000000
C     0.124000000    -1.627000000     8.357000000
H    -0.340000000    -2.311000000     9.063000000
C     1.237000000    -2.134000000     7.689000000
H     1.845000000    -2.967000000     8.033000000
C     1.880000000    -1.379000000     6.729000000
O     3.057000000    -1.824000000     6.149000000
C     3.156000000    -2.157000000     4.782000000
C     4.297000000    -1.922000000     4.041000000
H     5.220000000    -1.488000000     4.415000000
C     4.450000000    -2.356000000     2.700000000
O     5.583000000    -1.989000000     1.982000000
C     6.044000000    -2.405000000     0.775000000
C     6.071000000    -1.584000000    -0.374000000
H     5.649000000    -0.584000000    -0.311000000
C     6.595000000    -3.690000000     0.758000000
H     6.574000000    -4.269000000     1.679000000
C     7.232000000    -4.143000000    -0.379000000
H     7.647000000    -5.140000000    -0.503000000
C     7.210000000    -3.332000000    -1.544000000
H     7.610000000    -3.605000000    -2.517000000
C     6.649000000    -2.111000000    -1.518000000
O     6.585000000    -1.389000000    -2.719000000
C     5.394000000    -0.769000000    -3.096000000
C     5.361000000     0.575000000    -3.257000000
H     6.240000000     1.172000000    -3.028000000
C     4.183000000     1.193000000    -3.741000000
O     4.156000000     2.566000000    -3.802000000
C     3.331000000     3.322000000    -4.622000000
C     2.319000000     4.178000000    -4.189000000
H     2.054000000     4.333000000    -3.147000000
C     3.464000000     3.129000000    -5.977000000
H     4.214000000     2.475000000    -6.413000000
C     2.566000000     3.745000000    -6.906000000
H     2.622000000     3.592000000    -7.980000000
C     1.667000000     4.672000000    -6.493000000
H     1.038000000     5.104000000    -7.267000000
C     1.501000000     4.842000000    -5.060000000
O     0.517000000     5.762000000    -4.651000000
C    -0.423000000     5.414000000    -3.749000000
C    -0.959000000     6.383000000    -2.876000000
H    -0.597000000     7.408000000    -2.898000000
C    -1.950000000     6.046000000    -1.919000000
O    -2.443000000     6.905000000    -0.926000000
C    -2.788000000     6.452000000     0.393000000
C    -4.118000000     6.715000000     0.891000000
H    -4.909000000     7.228000000     0.348000000
C    -4.380000000     6.192000000     2.176000000
H    -5.357000000     6.305000000     2.639000000
C    -3.429000000     5.475000000     2.897000000
H    -3.578000000     5.302000000     3.959000000
C    -2.158000000     5.248000000     2.412000000
C    -1.835000000     5.783000000     1.144000000
H    -0.850000000     5.630000000     0.709000000
O     1.470000000     6.592000000     2.017000000
H     0.761000000     6.280000000     2.580000000
H     1.889000000     5.793000000     1.697000000
O     5.566000000     5.245000000     6.173000000
H     6.149000000     4.776000000     5.576000000
H     4.799000000     5.459000000     5.641000000
O     7.875000000     6.442000000     1.495000000
H     7.310000000     5.702000000     1.274000000
H     7.411000000     7.207000000     1.155000000
O     6.439000000     1.648000000     2.335000000
H     5.553000000     2.001000000     2.250000000
H     6.762000000     1.593000000     1.435000000
O     5.917000000     3.166000000    -1.248000000
H     5.666000000     3.920000000    -0.714000000
H     5.103000000     2.893000000    -1.673000000
O     5.795000000     4.750000000     1.937000000
H     5.342000000     3.950000000     2.202000000
H     5.139000000     5.244000000     1.445000000
O     4.240000000     5.408000000    -0.427000000
H     3.579000000     4.990000000     0.125000000
H     3.785000000     6.151000000    -0.823000000
O     5.192000000     7.853000000     3.420000000
H     4.746000000     7.014000000     3.537000000
H     5.463000000     8.106000000     4.302000000
O     8.053000000     1.774000000     4.446000000
H     7.595000000     1.356000000     3.716000000
H     7.644000000     2.636000000     4.523000000
O     1.340000000     7.140000000     5.106000000
H     0.506000000     7.295000000     5.549000000
H     1.873000000     7.904000000     5.325000000
O     3.598000000     5.546000000     4.028000000
H     2.761000000     5.996000000     4.145000000
H     3.409000000     4.852000000     3.395000000
O     2.129000000     9.206000000     2.165000000
H     2.146000000     9.000000000     3.100000000
H     1.759000000     8.425000000     1.755000000
O     7.371000000     4.482000000     4.397000000
H     7.822000000     5.300000000     4.607000000
H     7.034000000     4.616000000     3.511000000
O     7.978000000     2.048000000     0.141000000
H     8.745000000     1.959000000    -0.425000000
H     7.338000000     2.515000000    -0.396000000
O     2.922000000     7.572000000    -2.191000000
H     3.005000000     7.213000000    -3.074000000
H     3.617000000     8.228000000    -2.132000000
O     6.224000000     8.398000000     0.903000000
H     5.795000000     9.146000000     0.486000000
H     5.882000000     8.394000000     1.797000000
O     4.312000000     1.545000000     4.466000000
H     5.193000000     1.566000000     4.091000000
H     3.748000000     1.885000000     3.771000000
O     5.345000000     0.380000000     6.899000000
H     4.806000000     0.362000000     6.108000000
H     5.698000000     1.269000000     6.927000000
O     6.178000000     6.451000000    -1.988000000
H     5.576000000     6.082000000    -1.341000000
H     6.047000000     7.397000000    -1.924000000
