201
-1251.56834
C    -5.269000000     0.152000000    -1.458000000
H    -4.834000000     0.484000000    -2.398000000
C    -4.869000000     0.803000000    -0.261000000
C    -5.282000000     0.273000000     0.964000000
H    -5.191000000     0.911000000     1.839000000
C    -3.890000000     2.001000000    -0.374000000
O    -3.913000000     2.537000000    -1.724000000
H    -2.854000000     1.708000000    -0.147000000
O    -4.213000000     3.005000000     0.573000000
C    -3.148000000     3.600000000     1.179000000
C    -2.720000000     3.025000000     2.399000000
H    -3.273000000     2.247000000     2.919000000
C    -1.538000000     3.481000000     2.987000000
O    -1.151000000     2.753000000     4.103000000
C    -0.713000000     4.419000000     2.305000000
C     0.617000000     4.896000000     2.864000000
H     0.878000000     5.913000000     2.564000000
C     1.775000000     3.935000000     2.462000000
C     2.476000000     4.082000000     1.263000000
H     2.366000000     4.944000000     0.610000000
H     0.463000000     4.978000000     3.942000000
C    -1.169000000     4.939000000     1.088000000
H    -0.605000000     5.546000000     0.385000000
C    -2.328000000     4.458000000     0.454000000
C    -2.630000000     4.956000000    -0.947000000
H    -2.149000000     5.933000000    -1.026000000
H    -3.714000000     5.087000000    -0.944000000
C    -2.079000000     4.053000000    -1.969000000
C    -0.827000000     4.322000000    -2.533000000
H    -0.189000000     5.150000000    -2.234000000
C    -2.818000000     2.943000000    -2.386000000
C    -2.281000000     2.028000000    -3.253000000
H    -2.893000000     1.172000000    -3.524000000
C    -1.019000000     2.293000000    -3.816000000
O    -0.511000000     1.329000000    -4.644000000
C     0.420000000     0.472000000    -4.114000000
C     0.107000000    -0.967000000    -4.463000000
C     1.175000000    -1.884000000    -4.395000000
H     2.188000000    -1.489000000    -4.377000000
C    -1.205000000    -1.502000000    -4.650000000
H    -2.023000000    -0.790000000    -4.574000000
O     1.738000000     0.852000000    -4.612000000
H     0.419000000     0.592000000    -3.020000000
C    -0.306000000     3.462000000    -3.476000000
C     1.144000000     3.625000000    -4.102000000
H     1.272000000     4.708000000    -4.154000000
H     1.228000000     3.357000000    -5.157000000
C     2.196000000     2.812000000    -3.376000000
C     2.876000000     3.416000000    -2.293000000
H     2.547000000     4.413000000    -2.011000000
C     2.495000000     1.519000000    -3.644000000
C     3.502000000     0.802000000    -2.962000000
H     3.718000000    -0.236000000    -3.202000000
C     4.121000000     1.402000000    -1.869000000
O     4.782000000     0.625000000    -0.979000000
C     4.066000000     0.151000000     0.187000000
C     4.293000000    -1.284000000     0.531000000
C     4.552000000    -2.233000000    -0.542000000
H     4.594000000    -1.836000000    -1.553000000
C     4.049000000    -1.843000000     1.777000000
H     3.539000000    -1.288000000     2.560000000
O     4.469000000     0.983000000     1.263000000
H     3.004000000     0.306000000    -0.054000000
C     3.808000000     2.712000000    -1.554000000
C     4.411000000     3.414000000    -0.285000000
H     4.442000000     4.493000000    -0.455000000
H     5.429000000     3.024000000    -0.212000000
C     3.522000000     3.139000000     0.924000000
C     3.697000000     2.014000000     1.699000000
C     2.927000000     1.792000000     2.838000000
H     3.095000000     0.812000000     3.277000000
C     2.007000000     2.748000000     3.226000000
O     1.202000000     2.406000000     4.318000000
C    -0.075000000     1.822000000     3.979000000
H    -0.011000000     1.589000000     2.906000000
C    -0.293000000     0.489000000     4.700000000
C    -1.390000000    -0.346000000     4.330000000
H    -2.163000000     0.037000000     3.668000000
C     0.687000000     0.062000000     5.626000000
H     1.395000000     0.778000000     6.035000000
C     0.565000000    -1.243000000     6.102000000
O     1.582000000    -1.779000000     6.866000000
C    -0.451000000    -2.079000000     5.697000000
H    -0.453000000    -3.126000000     5.991000000
C    -1.458000000    -1.667000000     4.833000000
O    -2.535000000    -2.500000000     4.435000000
C    -3.726000000    -1.880000000     4.474000000
C    -4.528000000    -1.959000000     3.314000000
H    -4.056000000    -2.462000000     2.473000000
C    -4.151000000    -1.157000000     5.619000000
H    -3.423000000    -0.957000000     6.401000000
C    -5.521000000    -0.715000000     5.657000000
H    -5.902000000    -0.289000000     6.582000000
C    -6.272000000    -0.725000000     4.466000000
H    -7.293000000    -0.353000000     4.434000000
C    -5.819000000    -1.361000000     3.274000000
O    -6.573000000    -1.332000000     2.141000000
C    -6.091000000    -0.867000000     0.927000000
C    -6.536000000    -1.421000000    -0.196000000
H    -7.228000000    -2.256000000    -0.122000000
C    -6.065000000    -0.978000000    -1.398000000
O    -6.490000000    -1.616000000    -2.575000000
C    -5.738000000    -1.873000000    -3.702000000
C    -4.516000000    -2.621000000    -3.612000000
H    -4.104000000    -2.997000000    -2.679000000
C    -6.175000000    -1.477000000    -4.951000000
H    -7.060000000    -0.846000000    -4.966000000
C    -5.519000000    -1.820000000    -6.201000000
H    -6.017000000    -1.730000000    -7.162000000
C    -4.321000000    -2.531000000    -6.088000000
H    -3.751000000    -2.845000000    -6.958000000
C    -3.773000000    -2.880000000    -4.840000000
O    -2.581000000    -3.469000000    -4.711000000
C    -1.365000000    -2.849000000    -4.712000000
C    -0.298000000    -3.683000000    -4.829000000
H    -0.503000000    -4.736000000    -5.005000000
C     0.964000000    -3.201000000    -4.745000000
O     1.986000000    -4.049000000    -5.045000000
C     3.271000000    -4.088000000    -4.454000000
C     3.444000000    -4.275000000    -3.098000000
H     2.589000000    -4.367000000    -2.433000000
C     4.346000000    -3.930000000    -5.346000000
H     4.123000000    -3.778000000    -6.399000000
C     5.616000000    -3.981000000    -4.885000000
H     6.404000000    -4.120000000    -5.620000000
C     5.867000000    -4.130000000    -3.543000000
H     6.894000000    -4.245000000    -3.205000000
C     4.802000000    -4.300000000    -2.665000000
O     5.121000000    -4.468000000    -1.329000000
C     4.805000000    -3.592000000    -0.311000000
C     4.569000000    -4.094000000     0.975000000
H     4.797000000    -5.127000000     1.228000000
C     4.270000000    -3.201000000     1.996000000
O     4.105000000    -3.671000000     3.316000000
C     4.026000000    -2.865000000     4.445000000
C     5.239000000    -2.487000000     5.051000000
H     6.161000000    -2.731000000     4.531000000
C     5.169000000    -1.837000000     6.266000000
H     6.143000000    -1.557000000     6.658000000
C     3.957000000    -1.658000000     6.910000000
H     3.888000000    -1.240000000     7.911000000
C     2.767000000    -1.985000000     6.279000000
C     2.795000000    -2.554000000     5.018000000
H     1.879000000    -2.926000000     4.566000000
O    -4.088000000    -8.610000000    -3.885000000
H    -4.855000000    -8.466000000    -3.330000000
H    -3.802000000    -7.731000000    -4.131000000
O    -6.481000000    -7.241000000    -2.998000000
H    -5.667000000    -6.737000000    -2.993000000
H    -7.167000000    -6.587000000    -3.126000000
O     1.783000000    -7.958000000    -3.628000000
H     1.046000000    -7.366000000    -3.480000000
H     2.184000000    -7.644000000    -4.439000000
O     1.424000000    -8.980000000    -0.584000000
H     1.228000000    -8.078000000    -0.332000000
H     2.211000000    -8.913000000    -1.125000000
O    -3.892000000    -5.518000000    -2.533000000
H    -3.501000000    -5.482000000    -3.406000000
H    -3.250000000    -5.091000000    -1.966000000
O    -4.844000000    -8.552000000     1.459000000
H    -5.377000000    -8.191000000     0.751000000
H    -3.942000000    -8.364000000     1.200000000
O    -2.785000000    -6.527000000    -5.002000000
H    -1.891000000    -6.565000000    -5.341000000
H    -3.302000000    -7.028000000    -5.633000000
O    -6.047000000    -4.624000000    -1.291000000
H    -6.440000000    -5.228000000    -0.662000000
H    -5.295000000    -5.100000000    -1.644000000
O    -0.516000000    -6.686000000    -3.198000000
H    -0.223000000    -5.913000000    -2.715000000
H    -1.109000000    -7.135000000    -2.596000000
O    -2.602000000    -7.403000000    -0.547000000
H    -1.989000000    -7.028000000     0.086000000
H    -2.992000000    -6.643000000    -0.981000000
O     0.641000000    -4.777000000     2.884000000
H     0.726000000    -3.859000000     2.628000000
H    -0.300000000    -4.908000000     2.999000000
O     2.428000000    -6.692000000     3.388000000
H     2.355000000    -6.520000000     4.327000000
H     1.941000000    -5.978000000     2.975000000
O     0.560000000    -6.907000000     0.638000000
H     0.179000000    -6.241000000     0.066000000
H     0.287000000    -6.651000000     1.519000000
O    -4.232000000    -4.697000000     0.990000000
H    -3.624000000    -4.558000000     0.264000000
H    -4.999000000    -4.170000000     0.765000000
O    -6.110000000    -5.636000000     3.387000000
H    -6.546000000    -6.428000000     3.074000000
H    -5.522000000    -5.388000000     2.673000000
O    -2.090000000    -8.027000000     2.683000000
H    -1.475000000    -8.737000000     2.870000000
H    -2.686000000    -8.023000000     3.431000000
O    -1.012000000    -9.390000000    -1.307000000
H    -0.110000000    -9.360000000    -0.988000000
H    -1.434000000    -8.632000000    -0.901000000
O    -1.916000000    -5.169000000     2.709000000
H    -2.066000000    -6.108000000     2.827000000
H    -2.573000000    -4.901000000     2.066000000
O     0.999000000    -2.380000000     1.916000000
H     0.292000000    -1.887000000     1.499000000
H     1.676000000    -2.445000000     1.243000000
