201
-1229.93272
C     2.650000000    -0.648000000     3.990000000
H     3.352000000    -1.128000000     3.313000000
C     1.335000000    -1.009000000     4.329000000
C     0.485000000    -0.080000000     5.032000000
H    -0.578000000    -0.262000000     5.171000000
C     0.654000000    -2.176000000     3.619000000
O     1.514000000    -3.274000000     3.401000000
H     0.380000000    -1.842000000     2.608000000
O    -0.516000000    -2.693000000     4.270000000
C    -1.637000000    -2.853000000     3.436000000
C    -2.596000000    -1.839000000     3.413000000
H    -2.664000000    -1.018000000     4.123000000
C    -3.611000000    -1.873000000     2.422000000
O    -4.483000000    -0.801000000     2.333000000
C    -3.700000000    -2.978000000     1.561000000
C    -4.742000000    -3.042000000     0.441000000
H    -5.028000000    -4.082000000     0.268000000
C    -4.220000000    -2.264000000    -0.762000000
C    -3.621000000    -2.936000000    -1.938000000
H    -3.434000000    -4.007000000    -1.973000000
H    -5.647000000    -2.564000000     0.821000000
C    -2.664000000    -3.980000000     1.560000000
H    -2.687000000    -4.802000000     0.849000000
C    -1.593000000    -3.814000000     2.409000000
C    -0.571000000    -4.971000000     2.513000000
H    -1.162000000    -5.846000000     2.233000000
H    -0.212000000    -5.091000000     3.537000000
C     0.527000000    -4.493000000     1.547000000
C     0.590000000    -4.894000000     0.191000000
H    -0.239000000    -5.528000000    -0.111000000
C     1.571000000    -3.675000000     2.063000000
C     2.654000000    -3.294000000     1.306000000
H     3.502000000    -2.755000000     1.720000000
C     2.671000000    -3.638000000    -0.023000000
O     3.747000000    -3.174000000    -0.658000000
C     3.452000000    -2.029000000    -1.524000000
C     4.504000000    -0.924000000    -1.554000000
C     4.548000000    -0.031000000    -2.632000000
H     3.855000000    -0.016000000    -3.469000000
C     5.417000000    -0.857000000    -0.495000000
H     5.364000000    -1.494000000     0.385000000
O     3.258000000    -2.525000000    -2.795000000
H     2.521000000    -1.586000000    -1.139000000
C     1.684000000    -4.420000000    -0.557000000
C     1.793000000    -4.865000000    -2.008000000
H     1.294000000    -5.816000000    -2.205000000
H     2.829000000    -4.987000000    -2.330000000
C     1.230000000    -3.758000000    -2.836000000
C    -0.155000000    -3.814000000    -3.041000000
H    -0.771000000    -4.689000000    -2.849000000
C     1.990000000    -2.697000000    -3.204000000
C     1.390000000    -1.641000000    -3.887000000
H     2.018000000    -0.826000000    -4.236000000
C     0.037000000    -1.662000000    -4.195000000
O    -0.464000000    -0.532000000    -4.738000000
C    -1.238000000     0.362000000    -3.951000000
C    -0.993000000     1.847000000    -4.279000000
C     0.225000000     2.245000000    -4.898000000
H     0.858000000     1.399000000    -5.153000000
C    -1.941000000     2.832000000    -4.049000000
H    -2.871000000     2.453000000    -3.634000000
O    -2.635000000     0.123000000    -3.864000000
H    -0.832000000     0.270000000    -2.933000000
C    -0.764000000    -2.750000000    -3.773000000
C    -2.296000000    -2.819000000    -4.056000000
H    -2.688000000    -3.831000000    -4.179000000
H    -2.459000000    -2.365000000    -5.036000000
C    -3.086000000    -2.148000000    -2.984000000
C    -3.226000000    -0.736000000    -2.900000000
C    -3.855000000    -0.077000000    -1.838000000
H    -3.966000000     1.004000000    -1.871000000
C    -4.392000000    -0.816000000    -0.835000000
O    -4.983000000    -0.115000000     0.208000000
C    -4.255000000     0.216000000     1.405000000
H    -3.178000000     0.163000000     1.186000000
C    -4.496000000     1.634000000     1.885000000
C    -4.225000000     1.909000000     3.237000000
H    -3.887000000     1.099000000     3.879000000
C    -4.686000000     2.682000000     0.997000000
H    -4.902000000     2.477000000    -0.049000000
C    -4.590000000     4.049000000     1.398000000
O    -4.749000000     5.101000000     0.536000000
C    -4.340000000     4.292000000     2.790000000
H    -4.405000000     5.318000000     3.144000000
C    -4.080000000     3.239000000     3.682000000
O    -3.856000000     3.558000000     4.969000000
C    -3.068000000     2.836000000     5.833000000
C    -1.713000000     2.665000000     5.650000000
H    -1.148000000     3.289000000     4.962000000
C    -3.776000000     2.137000000     6.816000000
H    -4.853000000     2.269000000     6.882000000
C    -3.055000000     1.273000000     7.612000000
H    -3.532000000     0.617000000     8.336000000
C    -1.712000000     1.051000000     7.358000000
H    -1.192000000     0.317000000     7.968000000
C    -0.988000000     1.878000000     6.499000000
O     0.394000000     1.818000000     6.517000000
C     1.076000000     0.984000000     5.709000000
C     2.455000000     1.230000000     5.485000000
H     2.851000000     2.165000000     5.872000000
C     3.228000000     0.458000000     4.585000000
O     4.435000000     1.002000000     4.282000000
C     5.443000000     0.316000000     3.720000000
C     5.966000000     0.719000000     2.493000000
H     5.593000000     1.603000000     1.981000000
C     5.872000000    -0.813000000     4.343000000
H     5.404000000    -0.890000000     5.322000000
C     6.922000000    -1.549000000     3.830000000
H     7.193000000    -2.443000000     4.387000000
C     7.473000000    -1.221000000     2.605000000
H     8.236000000    -1.869000000     2.182000000
C     6.861000000    -0.119000000     1.822000000
O     7.312000000     0.200000000     0.570000000
C     6.392000000     0.153000000    -0.533000000
C     6.547000000     1.034000000    -1.623000000
H     7.332000000     1.785000000    -1.599000000
C     5.595000000     0.962000000    -2.628000000
O     5.709000000     1.926000000    -3.724000000
C     4.765000000     2.095000000    -4.703000000
C     3.706000000     2.959000000    -4.592000000
H     3.588000000     3.558000000    -3.693000000
C     4.952000000     1.400000000    -5.891000000
H     5.859000000     0.827000000    -6.070000000
C     4.080000000     1.560000000    -6.968000000
H     4.295000000     1.056000000    -7.907000000
C     3.014000000     2.422000000    -6.880000000
H     2.320000000     2.528000000    -7.710000000
C     2.805000000     3.063000000    -5.689000000
O     1.708000000     3.962000000    -5.521000000
C     0.506000000     3.562000000    -5.090000000
C    -0.426000000     4.518000000    -4.715000000
H    -0.135000000     5.559000000    -4.831000000
C    -1.707000000     4.166000000    -4.284000000
O    -2.526000000     5.151000000    -3.792000000
C    -3.586000000     4.954000000    -3.001000000
C    -4.696000000     4.398000000    -3.639000000
H    -4.480000000     4.178000000    -4.681000000
C    -5.837000000     4.169000000    -2.911000000
H    -6.685000000     3.576000000    -3.243000000
C    -5.855000000     4.348000000    -1.569000000
H    -6.813000000     4.181000000    -1.084000000
C    -4.790000000     4.966000000    -0.921000000
C    -3.645000000     5.267000000    -1.610000000
H    -2.727000000     5.689000000    -1.206000000
O     3.043000000     3.736000000     3.326000000
H     2.969000000     2.861000000     3.708000000
H     3.631000000     3.622000000     2.580000000
O     5.433000000     5.377000000     4.099000000
H     5.454000000     6.292000000     4.378000000
H     5.398000000     5.419000000     3.143000000
O     4.614000000     7.365000000    -1.409000000
H     5.224000000     6.872000000    -1.959000000
H     4.073000000     6.694000000    -0.992000000
O     5.840000000     5.075000000    -2.146000000
H     5.143000000     4.617000000    -1.676000000
H     6.644000000     4.630000000    -1.876000000
O     5.313000000     5.826000000     1.402000000
H     4.896000000     4.995000000     1.175000000
H     4.631000000     6.482000000     1.261000000
O     1.586000000     7.644000000     3.316000000
H     1.417000000     7.057000000     4.053000000
H     1.641000000     7.064000000     2.556000000
O     7.881000000     3.815000000     2.059000000
H     8.271000000     3.119000000     1.530000000
H     6.938000000     3.714000000     1.930000000
O     0.280000000     2.670000000     2.724000000
H     0.270000000     1.719000000     2.615000000
H     1.200000000     2.883000000     2.882000000
O     3.632000000     9.083000000    -3.143000000
H     4.071000000     8.466000000    -2.558000000
H     2.707000000     8.840000000    -3.097000000
O     1.882000000     5.316000000     5.264000000
H     2.192000000     4.863000000     4.480000000
H     2.629000000     5.842000000     5.548000000
O     7.413000000     7.550000000     1.150000000
H     8.292000000     7.185000000     1.253000000
H     6.827000000     6.838000000     1.405000000
O     2.669000000     6.650000000    -4.523000000
H     2.033000000     7.264000000    -4.890000000
H     2.466000000     6.625000000    -3.588000000
O     9.493000000     5.705000000     1.441000000
H     8.688000000     5.230000000     1.645000000
H    10.162000000     5.288000000     1.983000000
O     2.108000000     6.346000000    -1.930000000
H     2.713000000     5.677000000    -1.612000000
H     1.413000000     6.372000000    -1.272000000
O     6.176000000     4.009000000     6.392000000
H     5.952000000     4.348000000     5.525000000
H     6.886000000     3.388000000     6.231000000
O     9.377000000     2.110000000     0.407000000
H     8.898000000     1.599000000    -0.245000000
H    10.019000000     2.606000000    -0.101000000
O     5.291000000     5.819000000    -4.538000000
H     5.497000000     5.470000000    -3.671000000
H     4.350000000     5.989000000    -4.511000000
O    -0.989000000     4.498000000     1.125000000
H    -0.363000000     3.990000000     1.642000000
H    -1.671000000     3.868000000     0.890000000
O    -0.146000000     6.528000000    -0.186000000
H    -0.467000000     7.203000000     0.411000000
H    -0.483000000     5.708000000     0.175000000
