201
-1285.23724
C     2.178000000    -0.025000000     5.089000000
H     2.860000000    -0.760000000     4.671000000
C     0.797000000    -0.234000000     5.030000000
C    -0.090000000     0.756000000     5.548000000
H    -1.162000000     0.700000000     5.377000000
C     0.190000000    -1.369000000     4.265000000
O     0.938000000    -2.602000000     4.346000000
H     0.206000000    -1.009000000     3.226000000
O    -1.121000000    -1.693000000     4.673000000
C    -2.163000000    -1.873000000     3.715000000
C    -2.980000000    -0.883000000     3.273000000
H    -3.075000000     0.065000000     3.796000000
C    -3.826000000    -1.049000000     2.230000000
O    -4.585000000     0.000000000     1.732000000
C    -3.874000000    -2.280000000     1.554000000
C    -4.813000000    -2.579000000     0.388000000
H    -5.003000000    -3.652000000     0.306000000
C    -4.176000000    -2.137000000    -0.897000000
C    -3.491000000    -3.088000000    -1.694000000
H    -3.552000000    -4.153000000    -1.487000000
H    -5.742000000    -2.033000000     0.566000000
C    -3.064000000    -3.315000000     1.991000000
H    -3.077000000    -4.292000000     1.515000000
C    -2.241000000    -3.165000000     3.085000000
C    -1.347000000    -4.269000000     3.458000000
H    -1.796000000    -5.182000000     3.061000000
H    -1.292000000    -4.335000000     4.547000000
C    -0.003000000    -4.198000000     2.815000000
C     0.153000000    -4.775000000     1.524000000
H    -0.697000000    -5.322000000     1.124000000
C     1.034000000    -3.401000000     3.278000000
C     2.202000000    -3.167000000     2.524000000
H     2.944000000    -2.526000000     2.991000000
C     2.371000000    -3.809000000     1.314000000
O     3.550000000    -3.586000000     0.535000000
C     3.297000000    -2.586000000    -0.471000000
C     4.258000000    -1.400000000    -0.449000000
C     4.389000000    -0.550000000    -1.543000000
H     3.741000000    -0.783000000    -2.384000000
C     4.903000000    -0.982000000     0.724000000
H     4.763000000    -1.611000000     1.600000000
O     3.174000000    -3.096000000    -1.794000000
H     2.326000000    -2.147000000    -0.198000000
C     1.358000000    -4.587000000     0.764000000
C     1.424000000    -5.188000000    -0.581000000
H     0.953000000    -6.169000000    -0.669000000
H     2.466000000    -5.493000000    -0.699000000
C     0.998000000    -4.318000000    -1.778000000
C    -0.252000000    -4.493000000    -2.389000000
H    -0.847000000    -5.357000000    -2.107000000
C     1.876000000    -3.373000000    -2.318000000
C     1.515000000    -2.680000000    -3.453000000
H     2.178000000    -1.940000000    -3.893000000
C     0.193000000    -2.762000000    -4.015000000
O    -0.231000000    -1.714000000    -4.804000000
C    -0.761000000    -0.581000000    -4.209000000
C    -0.415000000     0.644000000    -4.975000000
C     0.861000000     0.814000000    -5.544000000
H     1.647000000     0.098000000    -5.319000000
C    -1.250000000     1.785000000    -5.061000000
H    -2.204000000     1.632000000    -4.563000000
O    -2.163000000    -0.716000000    -4.258000000
H    -0.385000000    -0.447000000    -3.185000000
C    -0.706000000    -3.655000000    -3.399000000
C    -2.197000000    -3.609000000    -3.817000000
H    -2.670000000    -4.592000000    -3.763000000
H    -2.204000000    -3.216000000    -4.836000000
C    -2.845000000    -2.651000000    -2.881000000
C    -2.793000000    -1.296000000    -3.172000000
C    -3.593000000    -0.426000000    -2.450000000
H    -3.642000000     0.617000000    -2.753000000
C    -4.324000000    -0.803000000    -1.334000000
O    -4.917000000     0.222000000    -0.584000000
C    -4.149000000     0.632000000     0.533000000
H    -3.146000000     0.210000000     0.371000000
C    -3.999000000     2.164000000     0.561000000
C    -3.630000000     2.784000000     1.742000000
H    -3.427000000     2.163000000     2.612000000
C    -4.088000000     2.920000000    -0.618000000
H    -4.297000000     2.464000000    -1.582000000
C    -3.810000000     4.279000000    -0.575000000
O    -3.878000000     5.097000000    -1.684000000
C    -3.515000000     4.909000000     0.613000000
H    -3.365000000     5.984000000     0.668000000
C    -3.288000000     4.113000000     1.770000000
O    -2.789000000     4.785000000     2.916000000
C    -2.773000000     4.310000000     4.160000000
C    -1.628000000     3.683000000     4.650000000
H    -0.666000000     3.681000000     4.145000000
C    -3.971000000     4.383000000     4.898000000
H    -4.963000000     4.637000000     4.533000000
C    -3.866000000     4.021000000     6.230000000
H    -4.762000000     4.105000000     6.839000000
C    -2.679000000     3.524000000     6.775000000
H    -2.677000000     3.142000000     7.792000000
C    -1.578000000     3.380000000     6.018000000
O    -0.390000000     2.974000000     6.611000000
C     0.454000000     1.903000000     6.121000000
C     1.816000000     2.004000000     6.321000000
H     2.196000000     2.762000000     7.001000000
C     2.668000000     1.117000000     5.675000000
O     4.051000000     1.392000000     5.852000000
C     4.970000000     0.660000000     5.119000000
C     5.226000000     0.934000000     3.747000000
H     4.579000000     1.638000000     3.229000000
C     5.739000000    -0.306000000     5.807000000
H     5.530000000    -0.476000000     6.860000000
C     6.759000000    -1.048000000     5.196000000
H     7.332000000    -1.778000000     5.763000000
C     6.895000000    -0.838000000     3.800000000
H     7.557000000    -1.530000000     3.285000000
C     6.233000000     0.172000000     3.113000000
O     6.608000000     0.423000000     1.783000000
C     5.754000000     0.192000000     0.729000000
C     5.919000000     0.920000000    -0.439000000
H     6.514000000     1.830000000    -0.427000000
C     5.187000000     0.600000000    -1.578000000
O     5.254000000     1.400000000    -2.702000000
C     4.932000000     1.062000000    -3.975000000
C     3.855000000     1.782000000    -4.626000000
H     3.396000000     2.571000000    -4.035000000
C     5.468000000    -0.020000000    -4.708000000
H     6.214000000    -0.640000000    -4.217000000
C     5.090000000    -0.304000000    -5.978000000
H     5.479000000    -1.151000000    -6.537000000
C     4.158000000     0.445000000    -6.668000000
H     3.870000000     0.188000000    -7.684000000
C     3.566000000     1.522000000    -5.994000000
O     2.546000000     2.181000000    -6.604000000
C     1.214000000     1.956000000    -6.185000000
C     0.297000000     2.954000000    -6.403000000
H     0.507000000     3.809000000    -7.041000000
C    -0.911000000     2.906000000    -5.816000000
O    -1.660000000     4.070000000    -5.847000000
C    -2.843000000     4.196000000    -5.104000000
C    -4.088000000     4.131000000    -5.751000000
H    -4.041000000     4.030000000    -6.832000000
C    -5.230000000     4.108000000    -4.983000000
H    -6.231000000     4.124000000    -5.406000000
C    -5.153000000     4.392000000    -3.644000000
H    -6.044000000     4.466000000    -3.025000000
C    -3.923000000     4.577000000    -2.991000000
C    -2.745000000     4.438000000    -3.744000000
H    -1.759000000     4.534000000    -3.297000000
O     5.695000000     7.620000000     2.807000000
H     5.264000000     6.877000000     2.384000000
H     5.449000000     7.545000000     3.730000000
O     5.057000000     8.847000000    -0.388000000
H     5.911000000     9.275000000    -0.321000000
H     5.239000000     8.018000000    -0.830000000
O     0.429000000    10.719000000     1.375000000
H     1.081000000    11.395000000     1.190000000
H     0.659000000     9.997000000     0.791000000
O     4.944000000     3.992000000    -1.528000000
H     5.076000000     3.188000000    -2.031000000
H     4.041000000     3.934000000    -1.217000000
O     0.947000000     6.670000000     5.361000000
H     1.901000000     6.705000000     5.422000000
H     0.775000000     6.377000000     4.466000000
O     1.919000000     5.892000000    -2.783000000
H     2.168000000     5.358000000    -2.029000000
H     1.287000000     6.520000000    -2.434000000
O     2.148000000     8.676000000     3.243000000
H     1.349000000     8.161000000     3.352000000
H     1.855000000     9.586000000     3.286000000
O     0.396000000     7.105000000    -0.763000000
H     0.481000000     6.282000000    -0.282000000
H     0.848000000     7.749000000    -0.218000000
O     2.286000000     4.724000000     3.056000000
H     1.561000000     4.280000000     2.615000000
H     2.896000000     4.943000000     2.352000000
O     3.837000000     6.948000000     4.920000000
H     3.696000000     7.718000000     4.368000000
H     4.144000000     7.305000000     5.753000000
O     2.200000000     8.720000000     0.370000000
H     3.079000000     8.775000000    -0.005000000
H     2.347000000     8.560000000     1.302000000
O     2.039000000     6.354000000    -5.522000000
H     1.726000000     6.362000000    -4.617000000
H     2.943000000     6.046000000    -5.459000000
O     4.707000000     4.419000000     4.604000000
H     4.484000000     5.330000000     4.793000000
H     3.978000000     4.098000000     4.073000000
O    -2.083000000     9.309000000     1.495000000
H    -2.422000000     9.119000000     0.620000000
H    -1.435000000     9.999000000     1.355000000
O    -2.189000000     8.332000000    -1.297000000
H    -1.326000000     7.948000000    -1.145000000
H    -2.332000000     8.234000000    -2.239000000
O     5.797000000     6.610000000    -1.756000000
H     5.555000000     6.570000000    -2.681000000
H     5.654000000     5.721000000    -1.432000000
O     1.326000000    10.168000000    -2.131000000
H     1.735000000     9.593000000    -1.484000000
H     1.975000000    10.242000000    -2.830000000
O    -0.106000000     6.852000000     2.629000000
H    -1.003000000     6.755000000     2.308000000
H     0.388000000     6.173000000     2.170000000
O     4.132000000     5.427000000     1.043000000
H     3.330000000     5.138000000     0.607000000
H     4.822000000     5.278000000     0.397000000
