201
-1239.39226
C     1.842000000    -1.362000000     4.773000000
H     2.305000000    -2.146000000     4.180000000
C     0.449000000    -1.079000000     4.605000000
C    -0.097000000     0.005000000     5.199000000
H    -1.074000000     0.372000000     4.897000000
C    -0.378000000    -1.861000000     3.596000000
O     0.127000000    -3.190000000     3.550000000
H    -0.353000000    -1.414000000     2.591000000
O    -1.766000000    -1.944000000     4.021000000
C    -2.740000000    -1.828000000     3.066000000
C    -3.463000000    -0.649000000     3.045000000
H    -3.098000000     0.168000000     3.663000000
C    -4.420000000    -0.411000000     2.083000000
O    -4.859000000     0.836000000     1.807000000
C    -4.613000000    -1.455000000     1.118000000
C    -5.427000000    -1.249000000    -0.116000000
H    -5.888000000    -2.220000000    -0.306000000
C    -4.632000000    -0.719000000    -1.277000000
C    -4.141000000    -1.687000000    -2.170000000
H    -4.387000000    -2.744000000    -2.097000000
H    -6.269000000    -0.594000000     0.118000000
C    -3.987000000    -2.693000000     1.242000000
H    -4.302000000    -3.460000000     0.538000000
C    -3.027000000    -2.865000000     2.193000000
C    -2.356000000    -4.230000000     2.311000000
H    -3.056000000    -4.971000000     1.920000000
H    -2.217000000    -4.523000000     3.354000000
C    -0.982000000    -4.364000000     1.714000000
C    -0.830000000    -4.955000000     0.482000000
H    -1.645000000    -5.437000000    -0.052000000
C     0.162000000    -3.797000000     2.333000000
C     1.412000000    -3.669000000     1.613000000
H     2.280000000    -3.248000000     2.113000000
C     1.467000000    -4.225000000     0.342000000
O     2.665000000    -4.078000000    -0.284000000
C     2.777000000    -3.046000000    -1.266000000
C     4.036000000    -2.264000000    -1.150000000
C     4.623000000    -1.600000000    -2.280000000
H     4.204000000    -1.803000000    -3.262000000
C     4.569000000    -2.018000000     0.158000000
H     4.092000000    -2.346000000     1.078000000
O     2.588000000    -3.426000000    -2.641000000
H     2.016000000    -2.318000000    -0.948000000
C     0.377000000    -4.902000000    -0.234000000
C     0.549000000    -5.357000000    -1.720000000
H    -0.170000000    -6.155000000    -1.916000000
H     1.569000000    -5.721000000    -1.856000000
C     0.341000000    -4.181000000    -2.642000000
C    -0.976000000    -3.906000000    -3.157000000
H    -1.864000000    -4.441000000    -2.830000000
C     1.335000000    -3.257000000    -3.096000000
C     1.059000000    -2.180000000    -3.920000000
H     1.912000000    -1.545000000    -4.145000000
C    -0.238000000    -1.901000000    -4.320000000
O    -0.383000000    -0.750000000    -4.968000000
C    -0.795000000     0.385000000    -4.138000000
C    -0.010000000     1.609000000    -4.432000000
C     1.283000000     1.484000000    -4.889000000
H     1.582000000     0.453000000    -5.057000000
C    -0.421000000     2.851000000    -4.030000000
H    -1.418000000     3.030000000    -3.635000000
O    -2.212000000     0.607000000    -4.239000000
H    -0.609000000     0.249000000    -3.063000000
C    -1.254000000    -2.720000000    -3.865000000
C    -2.740000000    -2.345000000    -4.146000000
H    -3.207000000    -3.331000000    -4.168000000
H    -2.857000000    -1.989000000    -5.172000000
C    -3.315000000    -1.270000000    -3.207000000
C    -2.962000000     0.037000000    -3.259000000
C    -3.386000000     0.977000000    -2.359000000
H    -3.106000000     2.023000000    -2.449000000
C    -4.377000000     0.614000000    -1.461000000
O    -4.741000000     1.558000000    -0.509000000
C    -4.100000000     1.634000000     0.813000000
H    -3.087000000     1.211000000     0.751000000
C    -3.947000000     3.076000000     1.264000000
C    -3.974000000     3.370000000     2.630000000
H    -4.161000000     2.583000000     3.356000000
C    -3.618000000     4.114000000     0.395000000
H    -3.328000000     3.820000000    -0.611000000
C    -3.292000000     5.374000000     0.868000000
O    -2.941000000     6.458000000     0.035000000
C    -3.329000000     5.599000000     2.234000000
H    -2.967000000     6.543000000     2.634000000
C    -3.616000000     4.579000000     3.143000000
O    -3.445000000     4.783000000     4.513000000
C    -2.940000000     3.703000000     5.283000000
C    -1.598000000     3.393000000     5.231000000
H    -0.913000000     3.932000000     4.582000000
C    -3.767000000     3.106000000     6.251000000
H    -4.833000000     3.321000000     6.250000000
C    -3.329000000     2.141000000     7.108000000
H    -3.921000000     1.726000000     7.919000000
C    -1.988000000     1.852000000     7.064000000
H    -1.565000000     1.153000000     7.781000000
C    -1.073000000     2.425000000     6.170000000
O     0.286000000     2.092000000     6.254000000
C     0.691000000     0.813000000     5.984000000
C     2.041000000     0.483000000     6.188000000
H     2.661000000     1.113000000     6.820000000
C     2.636000000    -0.619000000     5.658000000
O     3.966000000    -0.846000000     5.819000000
C     4.737000000    -1.562000000     4.901000000
C     5.213000000    -0.825000000     3.792000000
H     5.102000000     0.256000000     3.787000000
C     5.043000000    -2.928000000     4.961000000
H     4.833000000    -3.500000000     5.861000000
C     5.936000000    -3.466000000     4.048000000
H     6.362000000    -4.460000000     4.152000000
C     6.260000000    -2.829000000     2.894000000
H     6.891000000    -3.325000000     2.160000000
C     5.914000000    -1.496000000     2.735000000
O     6.172000000    -0.839000000     1.557000000
C     5.771000000    -1.257000000     0.284000000
C     6.316000000    -0.692000000    -0.881000000
H     7.287000000    -0.204000000    -0.856000000
C     5.723000000    -0.804000000    -2.120000000
O     6.314000000    -0.164000000    -3.183000000
C     5.719000000     0.130000000    -4.423000000
C     4.932000000     1.207000000    -4.503000000
H     4.891000000     1.927000000    -3.690000000
C     5.837000000    -0.714000000    -5.558000000
H     6.553000000    -1.526000000    -5.460000000
C     5.108000000    -0.509000000    -6.717000000
H     5.247000000    -1.162000000    -7.575000000
C     4.242000000     0.578000000    -6.745000000
H     3.561000000     0.792000000    -7.565000000
C     4.140000000     1.453000000    -5.649000000
O     3.404000000     2.592000000    -5.660000000
C     2.154000000     2.630000000    -5.081000000
C     1.714000000     3.889000000    -4.619000000
H     2.459000000     4.678000000    -4.550000000
C     0.404000000     4.004000000    -4.072000000
O     0.038000000     5.176000000    -3.432000000
C    -1.194000000     5.489000000    -3.034000000
C    -2.127000000     5.751000000    -4.026000000
H    -1.942000000     5.526000000    -5.073000000
C    -3.377000000     6.345000000    -3.583000000
H    -4.116000000     6.519000000    -4.362000000
C    -3.606000000     6.482000000    -2.238000000
H    -4.591000000     6.841000000    -1.951000000
C    -2.585000000     6.287000000    -1.253000000
C    -1.328000000     5.762000000    -1.682000000
H    -0.504000000     5.568000000    -1.000000000
O     3.581000000     5.661000000    -0.679000000
H     2.667000000     5.942000000    -0.711000000
H     3.589000000     4.942000000    -0.047000000
O     5.708000000     5.262000000     4.936000000
H     5.561000000     4.317000000     4.969000000
H     5.358000000     5.530000000     4.086000000
O     4.665000000     5.619000000     7.484000000
H     5.506000000     5.977000000     7.768000000
H     4.703000000     5.650000000     6.528000000
O     4.073000000     5.825000000     2.844000000
H     3.560000000     5.204000000     2.327000000
H     4.249000000     6.549000000     2.244000000
O     1.971000000     8.880000000     1.361000000
H     1.628000000     9.748000000     1.147000000
H     1.771000000     8.766000000     2.290000000
O     5.135000000     2.459000000     1.258000000
H     5.091000000     1.507000000     1.169000000
H     4.225000000     2.749000000     1.192000000
O     2.220000000     4.394000000     7.674000000
H     3.139000000     4.651000000     7.610000000
H     2.066000000     3.859000000     6.895000000
O     1.075000000     6.492000000     0.734000000
H     1.298000000     5.793000000     1.350000000
H     1.573000000     7.249000000     1.041000000
O    -1.221000000     8.678000000     1.217000000
H    -1.638000000     8.639000000     2.078000000
H    -0.576000000     7.971000000     1.230000000
O     6.957000000     2.899000000     3.506000000
H     6.490000000     2.780000000     2.678000000
H     6.374000000     2.523000000     4.166000000
O     2.282000000     3.787000000     5.173000000
H     2.731000000     2.944000000     5.107000000
H     2.034000000     3.998000000     4.273000000
O     4.722000000     6.097000000    -3.250000000
H     4.256000000     5.919000000    -2.433000000
H     4.283000000     6.867000000    -3.612000000
O     5.145000000     8.136000000     1.623000000
H     4.940000000     9.017000000     1.936000000
H     5.851000000     8.265000000     0.990000000
O     2.908000000     6.520000000     5.247000000
H     3.332000000     6.499000000     4.390000000
H     2.728000000     5.602000000     5.448000000
O     1.350000000     8.275000000    -1.725000000
H     1.847000000     9.045000000    -1.450000000
H     1.283000000     7.738000000    -0.936000000
O     5.565000000     3.035000000    -1.494000000
H     5.670000000     2.778000000    -0.578000000
H     5.124000000     3.884000000    -1.455000000
O     0.545000000     6.868000000     3.448000000
H     0.684000000     5.936000000     3.280000000
H     1.394000000     7.184000000     3.756000000
O     5.422000000     2.054000000     5.674000000
H     5.680000000     2.317000000     6.557000000
H     5.331000000     1.102000000     5.725000000
O     3.946000000     9.333000000    -1.015000000
H     4.560000000     9.988000000    -0.685000000
H     3.623000000     8.890000000    -0.231000000
