201
-1248.20727
C     2.665000000    -1.024000000     3.912000000
H     2.974000000    -1.852000000     3.280000000
C     1.337000000    -0.873000000     4.031000000
C     0.821000000     0.292000000     4.623000000
H    -0.242000000     0.480000000     4.750000000
C     0.333000000    -1.944000000     3.480000000
O     0.911000000    -3.235000000     3.453000000
H    -0.019000000    -1.759000000     2.454000000
O    -0.871000000    -2.054000000     4.197000000
C    -2.015000000    -2.150000000     3.543000000
C    -2.910000000    -1.091000000     3.651000000
H    -2.577000000    -0.252000000     4.257000000
C    -3.992000000    -0.987000000     2.751000000
O    -4.596000000     0.219000000     2.519000000
C    -4.244000000    -2.082000000     1.830000000
C    -5.299000000    -1.948000000     0.698000000
H    -5.638000000    -2.976000000     0.555000000
C    -4.751000000    -1.291000000    -0.590000000
C    -4.356000000    -2.079000000    -1.699000000
H    -4.538000000    -3.149000000    -1.639000000
H    -6.205000000    -1.419000000     1.002000000
C    -3.483000000    -3.237000000     1.880000000
H    -3.473000000    -4.010000000     1.115000000
C    -2.418000000    -3.310000000     2.794000000
C    -1.562000000    -4.640000000     2.778000000
H    -2.186000000    -5.473000000     2.447000000
H    -1.281000000    -4.968000000     3.781000000
C    -0.349000000    -4.591000000     1.903000000
C    -0.523000000    -4.895000000     0.516000000
H    -1.471000000    -5.222000000     0.094000000
C     0.774000000    -3.878000000     2.256000000
C     1.827000000    -3.735000000     1.361000000
H     2.798000000    -3.312000000     1.608000000
C     1.703000000    -4.160000000     0.053000000
O     2.738000000    -3.929000000    -0.780000000
C     2.677000000    -2.765000000    -1.680000000
C     3.958000000    -1.991000000    -1.757000000
C     4.039000000    -0.919000000    -2.624000000
H     3.393000000    -0.715000000    -3.474000000
C     4.908000000    -2.136000000    -0.760000000
H     4.751000000    -2.818000000     0.071000000
O     2.346000000    -3.313000000    -2.976000000
H     1.876000000    -2.088000000    -1.348000000
C     0.558000000    -4.729000000    -0.380000000
C     0.388000000    -5.247000000    -1.802000000
H    -0.378000000    -6.022000000    -1.726000000
H     1.345000000    -5.646000000    -2.141000000
C     0.033000000    -4.040000000    -2.758000000
C    -1.298000000    -3.756000000    -2.939000000
H    -2.026000000    -4.461000000    -2.545000000
C     1.006000000    -3.191000000    -3.313000000
C     0.646000000    -2.147000000    -4.148000000
H     1.464000000    -1.592000000    -4.601000000
C    -0.727000000    -1.828000000    -4.259000000
O    -1.102000000    -0.623000000    -4.878000000
C    -1.537000000     0.412000000    -3.977000000
C    -0.915000000     1.810000000    -4.198000000
C     0.160000000     1.940000000    -5.055000000
H     0.602000000     1.028000000    -5.448000000
C    -1.251000000     2.955000000    -3.368000000
H    -2.117000000     2.826000000    -2.725000000
O    -2.972000000     0.531000000    -3.936000000
H    -1.067000000     0.149000000    -3.018000000
C    -1.691000000    -2.692000000    -3.718000000
C    -3.177000000    -2.393000000    -3.917000000
H    -3.675000000    -3.353000000    -4.067000000
H    -3.378000000    -1.842000000    -4.838000000
C    -3.726000000    -1.520000000    -2.825000000
C    -3.619000000    -0.123000000    -2.916000000
C    -4.003000000     0.669000000    -1.881000000
H    -3.806000000     1.738000000    -1.880000000
C    -4.549000000     0.081000000    -0.725000000
O    -4.895000000     0.973000000     0.247000000
C    -4.104000000     1.027000000     1.441000000
H    -3.091000000     0.698000000     1.167000000
C    -3.868000000     2.480000000     1.947000000
C    -3.262000000     2.772000000     3.164000000
H    -3.019000000     1.938000000     3.818000000
C    -4.247000000     3.569000000     1.120000000
H    -4.726000000     3.428000000     0.154000000
C    -3.886000000     4.842000000     1.461000000
O    -4.088000000     5.902000000     0.605000000
C    -3.493000000     5.136000000     2.764000000
H    -3.415000000     6.165000000     3.103000000
C    -3.183000000     4.095000000     3.641000000
O    -2.907000000     4.340000000     4.979000000
C    -2.151000000     3.538000000     5.787000000
C    -0.797000000     3.383000000     5.533000000
H    -0.279000000     4.013000000     4.814000000
C    -2.743000000     2.792000000     6.841000000
H    -3.811000000     2.921000000     7.000000000
C    -1.978000000     1.812000000     7.497000000
H    -2.505000000     1.135000000     8.165000000
C    -0.622000000     1.675000000     7.246000000
H    -0.021000000     0.943000000     7.779000000
C    -0.061000000     2.475000000     6.278000000
O     1.269000000     2.299000000     5.973000000
C     1.738000000     1.115000000     5.333000000
C     3.134000000     0.964000000     5.153000000
H     3.835000000     1.673000000     5.586000000
C     3.577000000    -0.129000000     4.449000000
O     4.980000000    -0.240000000     4.264000000
C     5.655000000    -1.241000000     3.580000000
C     6.009000000    -0.990000000     2.229000000
H     5.665000000    -0.068000000     1.766000000
C     6.122000000    -2.356000000     4.249000000
H     5.716000000    -2.504000000     5.246000000
C     6.842000000    -3.292000000     3.495000000
H     7.100000000    -4.261000000     3.914000000
C     7.188000000    -3.102000000     2.161000000
H     7.731000000    -3.872000000     1.620000000
C     6.754000000    -1.893000000     1.553000000
O     7.003000000    -1.571000000     0.237000000
C     6.012000000    -1.308000000    -0.700000000
C     6.194000000    -0.238000000    -1.664000000
H     7.065000000     0.412000000    -1.674000000
C     5.220000000    -0.111000000    -2.631000000
O     5.432000000     0.932000000    -3.580000000
C     4.752000000     1.134000000    -4.772000000
C     3.640000000     1.979000000    -4.915000000
H     3.498000000     2.720000000    -4.132000000
C     5.064000000     0.288000000    -5.907000000
H     5.864000000    -0.444000000    -5.830000000
C     4.316000000     0.353000000    -7.096000000
H     4.559000000    -0.293000000    -7.935000000
C     3.305000000     1.347000000    -7.215000000
H     2.817000000     1.412000000    -8.185000000
C     2.961000000     2.165000000    -6.134000000
O     1.906000000     3.143000000    -6.169000000
C     0.900000000     3.126000000    -5.216000000
C     0.505000000     4.234000000    -4.489000000
H     0.986000000     5.205000000    -4.573000000
C    -0.512000000     4.137000000    -3.546000000
O    -0.674000000     5.201000000    -2.728000000
C    -1.985000000     5.556000000    -2.416000000
C    -2.820000000     6.030000000    -3.436000000
H    -2.531000000     6.113000000    -4.481000000
C    -4.156000000     6.313000000    -3.074000000
H    -4.866000000     6.519000000    -3.871000000
C    -4.509000000     6.368000000    -1.693000000
H    -5.469000000     6.781000000    -1.393000000
C    -3.636000000     5.972000000    -0.722000000
C    -2.391000000     5.540000000    -1.105000000
H    -1.674000000     5.139000000    -0.394000000
O     2.598000000     7.058000000    -1.019000000
H     1.731000000     7.412000000    -1.215000000
H     2.481000000     6.109000000    -1.048000000
O     5.025000000     4.187000000     5.130000000
H     5.142000000     5.066000000     4.771000000
H     4.473000000     3.738000000     4.490000000
O     3.568000000     7.088000000     2.074000000
H     3.335000000     6.367000000     1.489000000
H     3.299000000     7.876000000     1.602000000
O     1.919000000     9.440000000     0.937000000
H     1.409000000    10.168000000     0.581000000
H     1.941000000     9.602000000     1.880000000
O     5.600000000     2.977000000     0.574000000
H     5.257000000     3.048000000    -0.317000000
H     4.842000000     3.133000000     1.137000000
O     0.218000000     7.095000000     1.215000000
H     0.644000000     6.280000000     1.481000000
H     0.908000000     7.594000000     0.779000000
O     2.920000000     8.322000000    -3.726000000
H     3.328000000     9.182000000    -3.825000000
H     3.171000000     8.037000000    -2.847000000
O    -1.112000000     8.776000000     3.407000000
H    -2.008000000     8.953000000     3.121000000
H    -0.724000000     8.280000000     2.686000000
O     3.608000000     3.252000000     2.776000000
H     2.683000000     3.060000000     2.933000000
H     3.604000000     4.090000000     2.313000000
O     6.037000000     6.281000000    -1.922000000
H     5.982000000     6.893000000    -1.188000000
H     6.555000000     6.744000000    -2.581000000
O     5.959000000     7.937000000     0.178000000
H     6.636000000     8.611000000     0.123000000
H     6.151000000     7.470000000     0.991000000
O     5.633000000     6.597000000     3.978000000
H     6.278000000     7.268000000     3.754000000
H     4.883000000     6.788000000     3.414000000
O    -0.380000000     8.506000000    -1.101000000
H    -0.994000000     8.264000000    -0.408000000
H    -0.207000000     9.436000000    -0.952000000
O     7.850000000     1.867000000     1.161000000
H     6.985000000     2.145000000     0.860000000
H     7.670000000     1.201000000     1.825000000
O     4.261000000     3.978000000    -1.684000000
H     3.416000000     4.036000000    -1.238000000
H     4.610000000     4.869000000    -1.653000000
O     6.776000000     3.345000000    -2.818000000
H     5.856000000     3.137000000    -2.983000000
H     6.758000000     4.224000000    -2.440000000
O    -0.729000000     6.758000000     5.190000000
H    -0.916000000     7.587000000     4.751000000
H     0.042000000     6.416000000     4.738000000
O     1.713000000     5.733000000     4.180000000
H     1.414000000     5.341000000     3.360000000
H     2.658000000     5.831000000     4.068000000
O     4.076000000     9.473000000    -0.975000000
H     4.669000000     8.868000000    -0.530000000
H     3.224000000     9.319000000    -0.567000000
