201
-1234.21898
C     2.993000000    -1.152000000     4.015000000
H     3.436000000    -1.974000000     3.459000000
C     1.617000000    -1.072000000     4.204000000
C     1.131000000     0.017000000     4.875000000
H     0.070000000     0.118000000     5.092000000
C     0.624000000    -2.080000000     3.543000000
O     1.148000000    -3.342000000     3.347000000
H     0.254000000    -1.710000000     2.575000000
O    -0.570000000    -2.236000000     4.336000000
C    -1.790000000    -2.114000000     3.597000000
C    -2.529000000    -0.958000000     3.691000000
H    -2.360000000    -0.162000000     4.412000000
C    -3.549000000    -0.831000000     2.798000000
O    -4.050000000     0.425000000     2.646000000
C    -4.084000000    -1.843000000     1.954000000
C    -5.203000000    -1.640000000     0.972000000
H    -5.713000000    -2.598000000     0.845000000
C    -4.779000000    -1.041000000    -0.396000000
C    -4.442000000    -1.906000000    -1.442000000
H    -4.575000000    -2.984000000    -1.390000000
H    -5.931000000    -0.972000000     1.439000000
C    -3.410000000    -3.033000000     2.012000000
H    -3.674000000    -3.845000000     1.339000000
C    -2.258000000    -3.170000000     2.844000000
C    -1.539000000    -4.534000000     2.765000000
H    -2.237000000    -5.334000000     2.510000000
H    -1.143000000    -4.727000000     3.764000000
C    -0.365000000    -4.465000000     1.782000000
C    -0.624000000    -4.975000000     0.521000000
H    -1.612000000    -5.290000000     0.195000000
C     0.921000000    -3.978000000     2.162000000
C     1.860000000    -3.740000000     1.129000000
H     2.762000000    -3.218000000     1.437000000
C     1.676000000    -4.306000000    -0.116000000
O     2.724000000    -4.072000000    -0.991000000
C     2.547000000    -2.897000000    -1.893000000
C     3.809000000    -2.038000000    -1.967000000
C     4.093000000    -1.340000000    -3.138000000
H     3.358000000    -1.309000000    -3.939000000
C     4.623000000    -1.889000000    -0.828000000
H     4.333000000    -2.334000000     0.121000000
O     2.100000000    -3.389000000    -3.125000000
H     1.679000000    -2.358000000    -1.486000000
C     0.442000000    -4.841000000    -0.510000000
C     0.123000000    -5.255000000    -1.922000000
H    -0.698000000    -5.973000000    -1.887000000
H     0.997000000    -5.724000000    -2.380000000
C    -0.248000000    -4.032000000    -2.714000000
C    -1.640000000    -3.691000000    -2.868000000
H    -2.410000000    -4.227000000    -2.319000000
C     0.738000000    -3.237000000    -3.333000000
C     0.334000000    -2.049000000    -3.937000000
H     1.033000000    -1.359000000    -4.402000000
C    -1.027000000    -1.793000000    -4.150000000
O    -1.257000000    -0.572000000    -4.763000000
C    -1.600000000     0.484000000    -3.847000000
C    -0.996000000     1.761000000    -4.243000000
C     0.228000000     1.770000000    -4.976000000
H     0.702000000     0.885000000    -5.391000000
C    -1.531000000     2.894000000    -3.764000000
H    -2.434000000     2.982000000    -3.165000000
O    -3.059000000     0.590000000    -3.753000000
H    -1.142000000     0.342000000    -2.857000000
C    -2.013000000    -2.635000000    -3.643000000
C    -3.431000000    -2.289000000    -3.838000000
H    -4.057000000    -3.184000000    -3.868000000
H    -3.535000000    -1.810000000    -4.813000000
C    -3.932000000    -1.332000000    -2.621000000
C    -3.774000000     0.044000000    -2.733000000
C    -4.100000000     0.891000000    -1.678000000
H    -4.001000000     1.972000000    -1.741000000
C    -4.695000000     0.348000000    -0.559000000
O    -4.825000000     1.233000000     0.534000000
C    -3.796000000     1.325000000     1.531000000
H    -2.815000000     0.996000000     1.158000000
C    -3.539000000     2.711000000     2.022000000
C    -3.146000000     2.919000000     3.391000000
H    -3.324000000     2.129000000     4.116000000
C    -3.562000000     3.794000000     1.112000000
H    -3.841000000     3.612000000     0.078000000
C    -3.021000000     5.033000000     1.553000000
O    -3.024000000     6.107000000     0.738000000
C    -2.606000000     5.177000000     2.861000000
H    -2.268000000     6.184000000     3.092000000
C    -2.612000000     4.182000000     3.776000000
O    -2.345000000     4.423000000     5.115000000
C    -1.736000000     3.440000000     5.915000000
C    -0.327000000     3.274000000     5.827000000
H     0.043000000     3.837000000     4.973000000
C    -2.514000000     2.833000000     6.897000000
H    -3.573000000     3.078000000     6.890000000
C    -1.891000000     2.033000000     7.818000000
H    -2.400000000     1.637000000     8.693000000
C    -0.525000000     1.796000000     7.636000000
H     0.027000000     1.071000000     8.228000000
C     0.268000000     2.318000000     6.577000000
O     1.565000000     1.910000000     6.421000000
C     2.006000000     0.964000000     5.498000000
C     3.420000000     0.866000000     5.352000000
H     4.094000000     1.478000000     5.947000000
C     3.889000000    -0.175000000     4.579000000
O     5.279000000    -0.267000000     4.505000000
C     5.939000000    -1.123000000     3.598000000
C     6.143000000    -0.637000000     2.325000000
H     5.587000000     0.269000000     2.096000000
C     6.520000000    -2.339000000     3.963000000
H     6.295000000    -2.756000000     4.941000000
C     7.221000000    -3.119000000     3.054000000
H     7.630000000    -4.068000000     3.393000000
C     7.253000000    -2.684000000     1.730000000
H     7.777000000    -3.215000000     0.939000000
C     6.588000000    -1.515000000     1.349000000
O     6.727000000    -1.044000000     0.065000000
C     5.861000000    -1.231000000    -0.983000000
C     6.158000000    -0.596000000    -2.197000000
H     7.056000000    -0.004000000    -2.357000000
C     5.273000000    -0.606000000    -3.235000000
O     5.536000000     0.100000000    -4.465000000
C     4.548000000     0.473000000    -5.324000000
C     3.775000000     1.616000000    -5.095000000
H     4.098000000     2.357000000    -4.368000000
C     4.416000000    -0.330000000    -6.448000000
H     5.120000000    -1.154000000    -6.539000000
C     3.447000000     0.008000000    -7.395000000
H     3.380000000    -0.569000000    -8.314000000
C     2.569000000     1.119000000    -7.157000000
H     1.847000000     1.410000000    -7.916000000
C     2.756000000     1.924000000    -6.024000000
O     1.978000000     3.024000000    -5.856000000
C     0.833000000     2.967000000    -5.220000000
C     0.206000000     4.159000000    -4.929000000
H     0.728000000     5.112000000    -4.918000000
C    -0.920000000     4.086000000    -4.070000000
O    -1.483000000     5.289000000    -3.754000000
C    -2.539000000     5.528000000    -2.856000000
C    -3.825000000     5.704000000    -3.338000000
H    -3.909000000     5.585000000    -4.415000000
C    -4.893000000     6.009000000    -2.491000000
H    -5.885000000     6.152000000    -2.912000000
C    -4.665000000     6.101000000    -1.077000000
H    -5.494000000     6.381000000    -0.432000000
C    -3.324000000     5.980000000    -0.612000000
C    -2.288000000     5.661000000    -1.492000000
H    -1.328000000     5.425000000    -1.039000000
O     0.675000000     7.896000000    -2.482000000
H     0.174000000     8.270000000    -1.758000000
H     1.079000000     7.110000000    -2.113000000
O     7.325000000     4.998000000    -0.142000000
H     7.213000000     4.601000000    -1.005000000
H     6.494000000     4.839000000     0.305000000
O     3.607000000     7.525000000     1.105000000
H     3.001000000     6.814000000     0.899000000
H     3.068000000     8.316000000     1.074000000
O     1.730000000     9.912000000     1.239000000
H     1.282000000    10.687000000     0.899000000
H     2.318000000    10.251000000     1.913000000
O     4.922000000     4.325000000     1.103000000
H     4.506000000     5.186000000     1.052000000
H     4.276000000     3.773000000     1.544000000
O     0.343000000     7.679000000     2.223000000
H     0.805000000     6.841000000     2.186000000
H     1.013000000     8.331000000     2.016000000
O     2.894000000     8.724000000    -4.489000000
H     2.414000000     9.545000000    -4.602000000
H     2.338000000     8.199000000    -3.913000000
O    -1.588000000     9.287000000     2.979000000
H    -1.270000000     9.792000000     3.728000000
H    -0.972000000     8.558000000     2.904000000
O     3.371000000     2.571000000     2.932000000
H     2.738000000     2.154000000     2.348000000
H     2.928000000     3.361000000     3.242000000
O     5.628000000     5.838000000    -3.217000000
H     5.581000000     6.173000000    -4.112000000
H     5.126000000     6.466000000    -2.699000000
O     4.470000000     6.290000000     3.572000000
H     5.314000000     6.559000000     3.933000000
H     4.440000000     6.694000000     2.704000000
O    -0.934000000     8.367000000    -0.205000000
H    -0.612000000     7.960000000     0.600000000
H    -1.884000000     8.408000000    -0.089000000
O     6.851000000     2.492000000     1.423000000
H     6.955000000     2.965000000     2.249000000
H     6.049000000     2.849000000     1.042000000
O     2.592000000     5.416000000    -3.398000000
H     2.014000000     5.194000000    -2.669000000
H     3.413000000     5.678000000    -2.981000000
O    -1.693000000     8.110000000    -4.484000000
H    -1.018000000     8.786000000    -4.545000000
H    -1.263000000     7.382000000    -4.035000000
O     4.222000000    10.004000000    -1.473000000
H     4.122000000     9.055000000    -1.547000000
H     3.432000000    10.360000000    -1.881000000
O     1.146000000     6.228000000     5.673000000
H     1.518000000     7.039000000     5.327000000
H     1.465000000     5.547000000     5.081000000
O     2.193000000     4.825000000     3.694000000
H     1.708000000     5.003000000     2.888000000
H     2.986000000     5.355000000     3.618000000
O     4.049000000     7.270000000    -1.562000000
H     3.140000000     7.051000000    -1.357000000
H     4.405000000     7.607000000    -0.740000000
