201
-1239.85087
C    -5.153000000     0.647000000    -0.557000000
H    -4.799000000     0.869000000    -1.561000000
C    -4.581000000     1.395000000     0.485000000
C    -4.848000000     1.045000000     1.801000000
H    -4.469000000     1.605000000     2.652000000
C    -3.459000000     2.403000000     0.152000000
O    -3.801000000     3.024000000    -1.114000000
H    -2.554000000     1.780000000     0.116000000
O    -3.354000000     3.297000000     1.235000000
C    -2.031000000     3.570000000     1.568000000
C    -1.513000000     3.094000000     2.742000000
H    -2.132000000     2.386000000     3.287000000
C    -0.269000000     3.442000000     3.155000000
O     0.194000000     2.671000000     4.191000000
C     0.540000000     4.209000000     2.355000000
C     1.989000000     4.453000000     2.773000000
H     2.341000000     5.425000000     2.421000000
C     2.926000000     3.446000000     2.137000000
C     3.598000000     3.688000000     0.937000000
H     3.420000000     4.636000000     0.436000000
H     1.989000000     4.453000000     3.865000000
C     0.014000000     4.802000000     1.140000000
H     0.599000000     5.500000000     0.545000000
C    -1.309000000     4.467000000     0.726000000
C    -1.926000000     5.114000000    -0.574000000
H    -1.355000000     6.016000000    -0.803000000
H    -2.949000000     5.387000000    -0.310000000
C    -1.842000000     4.163000000    -1.797000000
C    -0.724000000     4.216000000    -2.639000000
H     0.054000000     4.925000000    -2.370000000
C    -2.829000000     3.248000000    -2.079000000
C    -2.646000000     2.293000000    -3.122000000
H    -3.418000000     1.534000000    -3.222000000
C    -1.501000000     2.305000000    -3.858000000
O    -1.368000000     1.208000000    -4.697000000
C    -0.463000000     0.188000000    -4.207000000
C    -0.989000000    -1.203000000    -4.532000000
C    -0.078000000    -2.316000000    -4.612000000
H     0.976000000    -2.051000000    -4.589000000
C    -2.319000000    -1.493000000    -4.519000000
H    -3.045000000    -0.712000000    -4.311000000
O     0.817000000     0.393000000    -4.767000000
H    -0.304000000     0.377000000    -3.135000000
C    -0.528000000     3.277000000    -3.612000000
C     0.757000000     3.343000000    -4.454000000
H     1.187000000     4.339000000    -4.575000000
H     0.641000000     2.923000000    -5.456000000
C     1.746000000     2.389000000    -3.746000000
C     2.664000000     2.905000000    -2.797000000
H     2.648000000     3.979000000    -2.633000000
C     1.780000000     1.012000000    -3.994000000
C     2.772000000     0.232000000    -3.342000000
H     2.768000000    -0.828000000    -3.580000000
C     3.662000000     0.756000000    -2.447000000
O     4.568000000    -0.045000000    -1.903000000
C     4.382000000    -0.356000000    -0.485000000
C     4.711000000    -1.844000000    -0.283000000
C     4.371000000    -2.792000000    -1.259000000
H     3.960000000    -2.442000000    -2.203000000
C     5.255000000    -2.297000000     0.917000000
H     5.471000000    -1.628000000     1.747000000
O     5.165000000     0.482000000     0.302000000
H     3.339000000    -0.231000000    -0.161000000
C     3.624000000     2.134000000    -2.133000000
C     4.661000000     2.848000000    -1.148000000
H     4.651000000     3.872000000    -1.526000000
H     5.625000000     2.412000000    -1.417000000
C     4.308000000     2.667000000     0.301000000
C     4.550000000     1.476000000     0.986000000
C     4.038000000     1.313000000     2.313000000
H     4.144000000     0.360000000     2.824000000
C     3.102000000     2.211000000     2.783000000
O     2.352000000     1.859000000     3.939000000
C     0.989000000     1.561000000     3.699000000
H     0.874000000     1.566000000     2.605000000
C     0.565000000     0.213000000     4.334000000
C    -0.638000000     0.132000000     5.049000000
H    -1.288000000     0.990000000     5.200000000
C     1.383000000    -0.944000000     4.262000000
H     2.387000000    -0.975000000     3.848000000
C     0.929000000    -2.158000000     4.750000000
O     1.646000000    -3.316000000     4.853000000
C    -0.399000000    -2.234000000     5.168000000
H    -0.855000000    -3.168000000     5.486000000
C    -1.213000000    -1.079000000     5.289000000
O    -2.453000000    -1.132000000     6.010000000
C    -3.499000000    -0.332000000     5.674000000
C    -4.415000000    -0.647000000     4.659000000
H    -4.298000000    -1.459000000     3.945000000
C    -3.834000000     0.695000000     6.572000000
H    -3.090000000     0.863000000     7.347000000
C    -4.874000000     1.567000000     6.455000000
H    -5.004000000     2.375000000     7.170000000
C    -5.702000000     1.368000000     5.345000000
H    -6.601000000     1.979000000     5.350000000
C    -5.490000000     0.295000000     4.478000000
O    -6.333000000     0.041000000     3.382000000
C    -5.879000000     0.205000000     2.123000000
C    -6.562000000    -0.385000000     1.142000000
H    -7.506000000    -0.851000000     1.411000000
C    -6.091000000    -0.319000000    -0.159000000
O    -6.842000000    -1.011000000    -1.142000000
C    -6.523000000    -1.147000000    -2.474000000
C    -5.550000000    -2.057000000    -2.876000000
H    -5.092000000    -2.652000000    -2.090000000
C    -7.129000000    -0.280000000    -3.447000000
H    -7.852000000     0.456000000    -3.103000000
C    -6.677000000    -0.360000000    -4.709000000
H    -7.072000000     0.386000000    -5.395000000
C    -5.710000000    -1.309000000    -5.101000000
H    -5.305000000    -1.379000000    -6.107000000
C    -5.106000000    -2.100000000    -4.160000000
O    -4.156000000    -3.042000000    -4.535000000
C    -2.810000000    -2.808000000    -4.613000000
C    -1.957000000    -3.852000000    -4.841000000
H    -2.331000000    -4.863000000    -4.979000000
C    -0.539000000    -3.618000000    -4.805000000
O     0.362000000    -4.594000000    -4.837000000
C     1.724000000    -4.410000000    -4.673000000
C     2.263000000    -4.858000000    -3.408000000
H     1.657000000    -5.333000000    -2.640000000
C     2.578000000    -3.993000000    -5.660000000
H     2.074000000    -3.812000000    -6.606000000
C     3.966000000    -3.940000000    -5.504000000
H     4.646000000    -3.637000000    -6.295000000
C     4.408000000    -4.228000000    -4.229000000
H     5.460000000    -4.168000000    -3.960000000
C     3.657000000    -4.764000000    -3.152000000
O     4.225000000    -5.045000000    -1.937000000
C     4.477000000    -4.149000000    -0.950000000
C     5.077000000    -4.583000000     0.199000000
H     5.319000000    -5.637000000     0.308000000
C     5.349000000    -3.644000000     1.178000000
O     5.746000000    -4.061000000     2.446000000
C     5.107000000    -3.710000000     3.611000000
C     5.760000000    -3.620000000     4.818000000
H     6.844000000    -3.654000000     4.881000000
C     5.087000000    -3.366000000     5.994000000
H     5.617000000    -3.252000000     6.936000000
C     3.725000000    -3.233000000     6.005000000
H     3.209000000    -2.984000000     6.929000000
C     2.994000000    -3.360000000     4.806000000
C     3.670000000    -3.640000000     3.614000000
H     3.058000000    -3.771000000     2.725000000
O    -9.425000000    -5.812000000    -0.902000000
H    -9.236000000    -5.210000000    -0.182000000
H   -10.361000000    -5.994000000    -0.823000000
O    -4.198000000    -8.633000000     5.040000000
H    -5.035000000    -9.000000000     4.754000000
H    -3.737000000    -8.427000000     4.226000000
O    -6.600000000    -3.050000000     2.438000000
H    -5.710000000    -2.926000000     2.107000000
H    -7.038000000    -3.566000000     1.761000000
O    -1.243000000    -5.791000000     5.012000000
H    -2.012000000    -5.319000000     4.692000000
H    -1.295000000    -6.648000000     4.590000000
O    -5.356000000    -5.550000000    -5.252000000
H    -4.944000000    -4.714000000    -5.034000000
H    -5.737000000    -5.409000000    -6.119000000
O    -8.873000000    -4.397000000     1.246000000
H    -9.340000000    -4.572000000     2.063000000
H    -9.382000000    -3.705000000     0.823000000
O    -4.043000000    -6.101000000    -2.436000000
H    -3.862000000    -5.282000000    -1.975000000
H    -4.997000000    -6.130000000    -2.506000000
O    -5.723000000    -5.753000000     0.510000000
H    -6.003000000    -5.495000000     1.388000000
H    -5.112000000    -5.067000000     0.242000000
O    -0.569000000    -5.614000000    -0.004000000
H    -0.406000000    -5.364000000     0.905000000
H    -1.369000000    -5.145000000    -0.242000000
O     1.072000000    -7.780000000    -0.671000000
H     1.711000000    -7.813000000     0.040000000
H     0.412000000    -7.155000000    -0.372000000
O    -5.791000000    -8.736000000     0.410000000
H    -6.105000000    -7.833000000     0.373000000
H    -4.950000000    -8.716000000    -0.046000000
O    -1.704000000    -7.722000000    -2.792000000
H    -2.612000000    -7.448000000    -2.664000000
H    -1.204000000    -7.187000000    -2.176000000
O    -3.337000000    -4.811000000     3.690000000
H    -3.601000000    -4.336000000     2.902000000
H    -4.162000000    -5.060000000     4.107000000
O    -6.802000000    -7.013000000    -1.743000000
H    -7.555000000    -6.439000000    -1.879000000
H    -6.295000000    -6.585000000    -1.053000000
O    -5.591000000    -3.596000000     4.880000000
H    -6.320000000    -3.265000000     5.405000000
H    -5.875000000    -3.478000000     3.974000000
O    -2.899000000    -8.700000000    -0.126000000
H    -2.553000000    -9.581000000     0.012000000
H    -2.341000000    -8.326000000    -0.807000000
O    -2.975000000    -7.680000000     2.374000000
H    -3.000000000    -8.061000000     1.496000000
H    -3.348000000    -6.805000000     2.266000000
O     0.068000000    -4.822000000     2.635000000
H    -0.518000000    -5.096000000     3.340000000
H     0.141000000    -3.874000000     2.738000000
O    -8.448000000    -7.202000000     1.731000000
H    -8.545000000    -6.345000000     1.316000000
H    -8.962000000    -7.139000000     2.536000000
