201
-1257.36735
C     2.491000000    -1.068000000     4.696000000
H     2.721000000    -2.123000000     4.566000000
C     1.167000000    -0.585000000     4.450000000
C     0.811000000     0.699000000     4.837000000
H    -0.218000000     1.031000000     4.724000000
C     0.122000000    -1.549000000     3.851000000
O     0.536000000    -2.920000000     4.016000000
H     0.068000000    -1.359000000     2.769000000
O    -1.167000000    -1.393000000     4.478000000
C    -2.266000000    -1.406000000     3.656000000
C    -2.774000000    -0.151000000     3.421000000
H    -2.358000000     0.749000000     3.866000000
C    -3.838000000    -0.060000000     2.492000000
O    -4.223000000     1.194000000     2.205000000
C    -4.364000000    -1.181000000     1.860000000
C    -5.400000000    -0.963000000     0.780000000
H    -5.956000000    -1.886000000     0.605000000
C    -4.780000000    -0.742000000    -0.598000000
C    -4.444000000    -1.893000000    -1.343000000
H    -4.662000000    -2.899000000    -0.994000000
H    -6.193000000    -0.225000000     0.919000000
C    -3.811000000    -2.395000000     2.081000000
H    -3.959000000    -3.219000000     1.388000000
C    -2.760000000    -2.559000000     2.985000000
C    -2.099000000    -3.944000000     3.317000000
H    -2.896000000    -4.686000000     3.230000000
H    -1.865000000    -4.005000000     4.382000000
C    -0.841000000    -4.194000000     2.540000000
C    -0.950000000    -4.735000000     1.221000000
H    -1.923000000    -5.057000000     0.858000000
C     0.408000000    -3.692000000     2.940000000
C     1.541000000    -3.723000000     2.160000000
H     2.485000000    -3.327000000     2.525000000
C     1.372000000    -4.293000000     0.854000000
O     2.462000000    -4.106000000     0.034000000
C     2.345000000    -3.085000000    -0.968000000
C     3.539000000    -2.154000000    -1.106000000
C     3.513000000    -1.188000000    -2.115000000
H     2.702000000    -1.202000000    -2.839000000
C     4.578000000    -2.059000000    -0.121000000
H     4.495000000    -2.675000000     0.771000000
O     2.106000000    -3.845000000    -2.208000000
H     1.540000000    -2.388000000    -0.692000000
C     0.211000000    -4.862000000     0.429000000
C     0.100000000    -5.496000000    -0.960000000
H    -0.661000000    -6.277000000    -1.019000000
H     1.044000000    -5.964000000    -1.247000000
C    -0.311000000    -4.497000000    -2.006000000
C    -1.657000000    -4.208000000    -2.296000000
H    -2.384000000    -4.775000000    -1.720000000
C     0.747000000    -3.799000000    -2.654000000
C     0.361000000    -2.815000000    -3.570000000
H     1.150000000    -2.266000000    -4.077000000
C    -1.007000000    -2.598000000    -3.908000000
O    -1.192000000    -1.573000000    -4.809000000
C    -1.548000000    -0.276000000    -4.277000000
C    -0.946000000     0.847000000    -5.104000000
C     0.204000000     0.580000000    -5.870000000
H     0.650000000    -0.409000000    -5.929000000
C    -1.380000000     2.157000000    -4.957000000
H    -2.260000000     2.423000000    -4.377000000
O    -2.928000000    -0.127000000    -4.234000000
H    -1.111000000    -0.240000000    -3.268000000
C    -2.036000000    -3.261000000    -3.276000000
C    -3.499000000    -2.840000000    -3.514000000
H    -4.154000000    -3.712000000    -3.447000000
H    -3.672000000    -2.469000000    -4.527000000
C    -3.900000000    -1.667000000    -2.576000000
C    -3.573000000    -0.345000000    -3.046000000
C    -3.782000000     0.731000000    -2.201000000
H    -3.465000000     1.712000000    -2.544000000
C    -4.351000000     0.561000000    -0.958000000
O    -4.459000000     1.572000000    -0.022000000
C    -3.560000000     1.742000000     1.065000000
H    -2.596000000     1.228000000     0.932000000
C    -3.111000000     3.167000000     1.452000000
C    -2.933000000     3.628000000     2.693000000
H    -3.044000000     2.961000000     3.544000000
C    -2.877000000     4.011000000     0.439000000
H    -3.002000000     3.671000000    -0.586000000
C    -2.355000000     5.313000000     0.566000000
O    -2.271000000     6.125000000    -0.552000000
C    -2.265000000     5.828000000     1.813000000
H    -1.959000000     6.860000000     1.966000000
C    -2.561000000     4.966000000     2.885000000
O    -2.246000000     5.460000000     4.143000000
C    -1.737000000     4.634000000     5.102000000
C    -0.426000000     4.140000000     5.012000000
H     0.150000000     4.395000000     4.125000000
C    -2.445000000     4.275000000     6.270000000
H    -3.438000000     4.684000000     6.436000000
C    -1.886000000     3.356000000     7.214000000
H    -2.475000000     3.013000000     8.061000000
C    -0.541000000     2.927000000     7.124000000
H    -0.100000000     2.236000000     7.837000000
C     0.165000000     3.278000000     5.966000000
O     1.433000000     2.834000000     5.818000000
C     1.770000000     1.507000000     5.497000000
C     3.071000000     0.990000000     5.642000000
H     3.797000000     1.633000000     6.132000000
C     3.481000000    -0.246000000     5.173000000
O     4.734000000    -0.789000000     5.278000000
C     5.442000000    -1.458000000     4.264000000
C     5.646000000    -1.007000000     2.962000000
H     5.256000000    -0.027000000     2.699000000
C     6.193000000    -2.517000000     4.727000000
H     6.091000000    -2.944000000     5.721000000
C     6.986000000    -3.232000000     3.827000000
H     7.484000000    -4.166000000     4.073000000
C     7.066000000    -2.789000000     2.494000000
H     7.736000000    -3.388000000     1.883000000
C     6.452000000    -1.644000000     2.086000000
O     6.583000000    -1.080000000     0.760000000
C     5.589000000    -1.127000000    -0.194000000
C     5.513000000    -0.190000000    -1.201000000
H     6.326000000     0.518000000    -1.345000000
C     4.524000000    -0.214000000    -2.175000000
O     4.661000000     0.671000000    -3.230000000
C     4.351000000     0.422000000    -4.573000000
C     3.385000000     1.145000000    -5.213000000
H     2.943000000     2.017000000    -4.738000000
C     4.961000000    -0.657000000    -5.208000000
H     5.714000000    -1.206000000    -4.649000000
C     4.675000000    -0.943000000    -6.537000000
H     5.321000000    -1.658000000    -7.039000000
C     3.671000000    -0.215000000    -7.190000000
H     3.289000000    -0.485000000    -8.172000000
C     3.083000000     0.836000000    -6.516000000
O     2.094000000     1.591000000    -7.135000000
C     0.895000000     1.696000000    -6.498000000
C     0.492000000     2.952000000    -6.110000000
H     1.124000000     3.803000000    -6.353000000
C    -0.611000000     3.220000000    -5.306000000
O    -0.773000000     4.515000000    -4.862000000
C    -1.807000000     4.914000000    -4.058000000
C    -3.147000000     5.062000000    -4.511000000
H    -3.469000000     4.693000000    -5.482000000
C    -4.077000000     5.668000000    -3.668000000
H    -5.052000000     5.886000000    -4.097000000
C    -3.785000000     6.041000000    -2.355000000
H    -4.378000000     6.582000000    -1.623000000
C    -2.535000000     5.750000000    -1.890000000
C    -1.559000000     5.182000000    -2.725000000
H    -0.542000000     5.079000000    -2.356000000
O     0.032000000     8.189000000     0.258000000
H     0.691000000     7.502000000     0.156000000
H    -0.439000000     8.194000000    -0.575000000
O    -1.423000000     8.243000000    -3.973000000
H    -0.540000000     7.899000000    -3.835000000
H    -1.727000000     8.480000000    -3.097000000
O     5.988000000     3.445000000     3.784000000
H     5.622000000     4.230000000     3.376000000
H     5.770000000     3.534000000     4.712000000
O     6.294000000     6.703000000     0.537000000
H     6.471000000     5.829000000     0.188000000
H     5.510000000     6.993000000     0.070000000
O     2.638000000     5.049000000    -4.583000000
H     3.249000000     5.760000000    -4.782000000
H     2.214000000     5.319000000    -3.769000000
O     5.893000000     2.606000000     1.069000000
H     5.041000000     2.169000000     1.097000000
H     6.039000000     2.902000000     1.967000000
O     2.685000000     5.904000000     4.738000000
H     3.555000000     5.519000000     4.837000000
H     2.690000000     6.286000000     3.860000000
O     3.990000000     7.040000000    -1.062000000
H     3.562000000     6.263000000    -1.421000000
H     3.277000000     7.665000000    -0.928000000
O     3.342000000     1.197000000     0.638000000
H     2.481000000     1.591000000     0.499000000
H     3.391000000     0.492000000    -0.008000000
O     4.582000000     8.759000000    -3.455000000
H     4.391000000     8.172000000    -2.724000000
H     5.392000000     9.202000000    -3.201000000
O     4.284000000     6.884000000    -5.548000000
H     3.749000000     7.148000000    -6.296000000
H     4.363000000     7.677000000    -5.018000000
O     2.113000000     9.540000000     2.458000000
H     1.405000000     9.732000000     1.844000000
H     2.089000000    10.263000000     3.085000000
O     2.780000000     9.362000000    -0.709000000
H     2.825000000     9.325000000     0.247000000
H     2.646000000    10.289000000    -0.906000000
O     6.721000000     4.519000000    -0.614000000
H     6.715000000     3.725000000    -0.080000000
H     6.119000000     4.328000000    -1.334000000
O     1.092000000     7.616000000    -2.770000000
H     1.316000000     6.721000000    -2.515000000
H     1.830000000     7.903000000    -3.307000000
O     2.820000000     6.993000000     2.222000000
H     2.295000000     7.790000000     2.148000000
H     2.505000000     6.433000000     1.513000000
O     5.298000000     5.932000000     2.845000000
H     4.610000000     6.550000000     3.091000000
H     5.467000000     6.117000000     1.921000000
O     5.215000000     4.313000000    -3.067000000
H     4.260000000     4.310000000    -3.118000000
H     5.467000000     5.195000000    -3.340000000
O    -1.380000000     9.519000000     2.477000000
H    -0.876000000    10.287000000     2.209000000
H    -1.211000000     8.871000000     1.792000000
