201
-1244.36138
C     3.000000000     0.368000000     4.341000000
H     3.483000000    -0.375000000     3.712000000
C     1.657000000     0.192000000     4.562000000
C     0.919000000     1.147000000     5.302000000
H    -0.114000000     0.922000000     5.556000000
C     1.044000000    -1.082000000     3.998000000
O     1.979000000    -2.265000000     3.942000000
H     0.748000000    -0.809000000     2.975000000
O    -0.080000000    -1.480000000     4.773000000
C    -1.264000000    -1.786000000     4.046000000
C    -2.120000000    -0.669000000     3.665000000
H    -2.026000000     0.284000000     4.178000000
C    -3.133000000    -0.883000000     2.783000000
O    -3.883000000     0.170000000     2.426000000
C    -3.384000000    -2.142000000     2.190000000
C    -4.678000000    -2.398000000     1.308000000
H    -4.954000000    -3.454000000     1.339000000
C    -4.415000000    -2.019000000    -0.125000000
C    -3.995000000    -3.086000000    -0.951000000
H    -3.950000000    -4.078000000    -0.509000000
H    -5.561000000    -1.947000000     1.766000000
C    -2.491000000    -3.173000000     2.448000000
H    -2.641000000    -4.064000000     1.844000000
C    -1.470000000    -3.018000000     3.437000000
C    -0.446000000    -4.168000000     3.720000000
H    -0.837000000    -5.174000000     3.556000000
H    -0.124000000    -4.140000000     4.763000000
C     0.711000000    -4.033000000     2.701000000
C     0.538000000    -4.775000000     1.502000000
H    -0.353000000    -5.374000000     1.330000000
C     1.814000000    -3.161000000     2.857000000
C     2.851000000    -3.161000000     1.945000000
H     3.740000000    -2.565000000     2.137000000
C     2.670000000    -3.906000000     0.777000000
O     3.573000000    -3.710000000    -0.227000000
C     3.221000000    -2.767000000    -1.250000000
C     4.177000000    -1.559000000    -1.319000000
C     4.153000000    -0.832000000    -2.487000000
H     3.392000000    -0.990000000    -3.247000000
C     5.122000000    -1.224000000    -0.313000000
H     5.159000000    -1.762000000     0.630000000
O     2.863000000    -3.402000000    -2.510000000
H     2.281000000    -2.304000000    -0.915000000
C     1.491000000    -4.642000000     0.531000000
C     1.381000000    -5.378000000    -0.789000000
H     0.819000000    -6.307000000    -0.671000000
H     2.379000000    -5.641000000    -1.147000000
C     0.783000000    -4.582000000    -1.945000000
C    -0.657000000    -4.449000000    -2.037000000
H    -1.274000000    -5.162000000    -1.496000000
C     1.555000000    -3.739000000    -2.782000000
C     0.910000000    -2.928000000    -3.746000000
H     1.372000000    -2.140000000    -4.334000000
C    -0.478000000    -2.922000000    -3.837000000
O    -0.970000000    -1.971000000    -4.678000000
C    -1.609000000    -0.797000000    -3.991000000
C    -1.442000000     0.521000000    -4.740000000
C    -0.236000000     0.672000000    -5.418000000
H     0.469000000    -0.154000000    -5.453000000
C    -2.332000000     1.589000000    -4.689000000
H    -3.207000000     1.568000000    -4.045000000
O    -3.034000000    -1.136000000    -3.965000000
H    -1.299000000    -0.752000000    -2.937000000
C    -1.306000000    -3.632000000    -3.011000000
C    -2.804000000    -3.790000000    -3.152000000
H    -3.050000000    -4.801000000    -2.821000000
H    -3.049000000    -3.688000000    -4.211000000
C    -3.542000000    -2.796000000    -2.275000000
C    -3.566000000    -1.481000000    -2.729000000
C    -4.086000000    -0.432000000    -1.881000000
H    -4.230000000     0.579000000    -2.252000000
C    -4.477000000    -0.711000000    -0.556000000
O    -4.782000000     0.369000000     0.232000000
C    -3.790000000     0.872000000     1.178000000
H    -2.779000000     0.673000000     0.792000000
C    -3.912000000     2.389000000     1.293000000
C    -3.236000000     3.001000000     2.357000000
H    -2.789000000     2.277000000     3.033000000
C    -4.546000000     3.213000000     0.372000000
H    -5.221000000     2.811000000    -0.379000000
C    -4.431000000     4.630000000     0.370000000
O    -4.687000000     5.420000000    -0.745000000
C    -3.724000000     5.229000000     1.435000000
H    -3.528000000     6.296000000     1.371000000
C    -3.199000000     4.390000000     2.389000000
O    -2.439000000     4.957000000     3.464000000
C    -2.169000000     4.325000000     4.661000000
C    -0.872000000     4.155000000     5.030000000
H    -0.049000000     4.429000000     4.375000000
C    -3.168000000     4.086000000     5.586000000
H    -4.234000000     4.219000000     5.419000000
C    -2.908000000     3.662000000     6.913000000
H    -3.774000000     3.640000000     7.569000000
C    -1.566000000     3.305000000     7.184000000
H    -1.262000000     2.932000000     8.158000000
C    -0.542000000     3.506000000     6.218000000
O     0.815000000     3.257000000     6.444000000
C     1.591000000     2.324000000     5.725000000
C     2.965000000     2.532000000     5.387000000
H     3.481000000     3.460000000     5.619000000
C     3.684000000     1.536000000     4.794000000
O     5.014000000     1.761000000     4.512000000
C     5.789000000     0.856000000     3.830000000
C     5.983000000     0.991000000     2.433000000
H     5.578000000     1.801000000     1.832000000
C     6.414000000    -0.219000000     4.526000000
H     6.442000000    -0.324000000     5.608000000
C     7.146000000    -1.167000000     3.820000000
H     7.668000000    -1.926000000     4.396000000
C     7.382000000    -1.066000000     2.452000000
H     8.044000000    -1.721000000     1.890000000
C     6.875000000     0.068000000     1.753000000
O     7.010000000     0.046000000     0.368000000
C     6.000000000    -0.208000000    -0.500000000
C     5.990000000     0.471000000    -1.667000000
H     6.697000000     1.292000000    -1.760000000
C     5.092000000     0.195000000    -2.738000000
O     5.079000000     1.062000000    -3.795000000
C     4.339000000     0.888000000    -4.948000000
C     3.149000000     1.635000000    -5.159000000
H     2.791000000     2.428000000    -4.508000000
C     4.732000000    -0.108000000    -5.804000000
H     5.697000000    -0.601000000    -5.719000000
C     4.020000000    -0.304000000    -7.001000000
H     4.260000000    -1.115000000    -7.685000000
C     2.850000000     0.432000000    -7.221000000
H     2.379000000     0.385000000    -8.199000000
C     2.392000000     1.345000000    -6.262000000
O     1.291000000     2.137000000    -6.581000000
C     0.060000000     1.912000000    -6.047000000
C    -0.829000000     2.987000000    -5.936000000
H    -0.607000000     3.986000000    -6.303000000
C    -2.038000000     2.849000000    -5.251000000
O    -2.683000000     3.998000000    -4.895000000
C    -3.744000000     4.105000000    -4.079000000
C    -4.955000000     3.596000000    -4.519000000
H    -5.002000000     3.036000000    -5.449000000
C    -6.103000000     3.779000000    -3.724000000
H    -7.064000000     3.339000000    -3.980000000
C    -5.971000000     4.335000000    -2.443000000
H    -6.840000000     4.384000000    -1.792000000
C    -4.726000000     4.826000000    -1.975000000
C    -3.624000000     4.661000000    -2.802000000
H    -2.647000000     4.988000000    -2.457000000
O     2.842000000    10.639000000     0.554000000
H     3.286000000     9.909000000     0.986000000
H     3.188000000    10.635000000    -0.338000000
O    -3.722000000     8.368000000    -1.102000000
H    -4.177000000     7.526000000    -1.081000000
H    -2.862000000     8.184000000    -0.723000000
O     1.295000000     8.446000000    -1.215000000
H     1.207000000     9.185000000    -0.613000000
H     1.308000000     7.675000000    -0.649000000
O    -1.266000000     7.718000000     3.664000000
H    -1.248000000     7.638000000     2.710000000
H    -2.138000000     7.413000000     3.914000000
O     2.433000000     5.156000000    -3.473000000
H     3.295000000     5.542000000    -3.316000000
H     2.401000000     4.398000000    -2.890000000
O     4.447000000     4.264000000     0.033000000
H     4.566000000     5.181000000     0.284000000
H     3.787000000     3.933000000     0.642000000
O     0.060000000    10.204000000     1.232000000
H     0.975000000    10.376000000     1.453000000
H    -0.440000000    10.682000000     1.894000000
O     3.332000000     2.836000000    -1.941000000
H     3.863000000     3.385000000    -1.364000000
H     3.738000000     1.971000000    -1.888000000
O     3.058000000     5.693000000     4.071000000
H     3.040000000     5.597000000     3.119000000
H     3.959000000     5.479000000     4.316000000
O     7.357000000     3.542000000    -0.524000000
H     6.420000000     3.465000000    -0.344000000
H     7.406000000     3.759000000    -1.455000000
O    -1.817000000     8.009000000    -3.689000000
H    -1.145000000     7.594000000    -3.148000000
H    -1.699000000     8.947000000    -3.540000000
O     1.128000000     9.067000000    -4.098000000
H     0.428000000     9.683000000    -3.880000000
H     1.455000000     8.766000000    -3.251000000
O    -1.441000000     8.087000000     0.592000000
H    -0.798000000     7.392000000     0.454000000
H    -0.916000000     8.876000000     0.726000000
O    -0.362000000     6.120000000    -2.156000000
H    -0.130000000     6.157000000    -1.228000000
H     0.217000000     5.449000000    -2.520000000
O     0.945000000     6.836000000     5.437000000
H     1.604000000     6.444000000     4.863000000
H     0.359000000     7.305000000     4.843000000
O     5.527000000     5.202000000     4.606000000
H     6.425000000     5.526000000     4.670000000
H     5.487000000     4.481000000     5.235000000
O     5.319000000     6.087000000    -2.698000000
H     5.594000000     6.951000000    -3.004000000
H     5.010000000     6.236000000    -1.805000000
O     4.352000000     6.958000000    -0.161000000
H     4.543000000     7.763000000     0.320000000
H     3.448000000     6.748000000     0.073000000
O     3.306000000     8.435000000     1.948000000
H     3.563000000     8.331000000     2.864000000
H     2.937000000     7.586000000     1.705000000
