201
-1245.00932
C     0.428000000    -0.761000000     5.220000000
H     1.170000000    -1.553000000     5.154000000
C    -0.755000000    -0.793000000     4.474000000
C    -1.701000000     0.235000000     4.602000000
H    -2.693000000     0.205000000     4.158000000
C    -1.086000000    -2.029000000     3.593000000
O    -0.164000000    -3.143000000     3.892000000
H    -0.849000000    -1.748000000     2.557000000
O    -2.436000000    -2.529000000     3.675000000
C    -3.037000000    -2.827000000     2.470000000
C    -3.805000000    -1.814000000     1.909000000
H    -4.139000000    -1.015000000     2.566000000
C    -4.319000000    -1.860000000     0.632000000
O    -4.952000000    -0.710000000     0.215000000
C    -4.020000000    -2.947000000    -0.194000000
C    -4.401000000    -3.077000000    -1.625000000
H    -4.451000000    -4.107000000    -1.986000000
C    -3.417000000    -2.379000000    -2.578000000
C    -2.400000000    -3.120000000    -3.129000000
H    -2.413000000    -4.206000000    -3.123000000
H    -5.446000000    -2.760000000    -1.624000000
C    -3.099000000    -3.883000000     0.327000000
H    -2.802000000    -4.717000000    -0.304000000
C    -2.614000000    -3.837000000     1.646000000
C    -1.608000000    -4.876000000     2.168000000
H    -1.805000000    -5.725000000     1.509000000
H    -1.913000000    -5.255000000     3.145000000
C    -0.186000000    -4.493000000     1.927000000
C     0.530000000    -5.007000000     0.781000000
H     0.005000000    -5.740000000     0.174000000
C     0.501000000    -3.674000000     2.812000000
C     1.797000000    -3.276000000     2.567000000
H     2.406000000    -2.694000000     3.254000000
C     2.481000000    -3.778000000     1.494000000
O     3.788000000    -3.385000000     1.241000000
C     3.921000000    -2.234000000     0.304000000
C     4.773000000    -1.078000000     0.833000000
C     5.318000000    -0.148000000    -0.069000000
H     5.222000000    -0.301000000    -1.141000000
C     4.884000000    -0.800000000     2.176000000
H     4.301000000    -1.348000000     2.911000000
O     4.340000000    -2.747000000    -0.992000000
H     2.925000000    -1.789000000     0.161000000
C     1.874000000    -4.658000000     0.618000000
C     2.604000000    -5.071000000    -0.688000000
H     2.159000000    -5.954000000    -1.151000000
H     3.683000000    -5.173000000    -0.561000000
C     2.347000000    -4.093000000    -1.816000000
C     1.205000000    -4.248000000    -2.721000000
H     0.406000000    -4.958000000    -2.529000000
C     3.244000000    -2.997000000    -1.879000000
C     2.918000000    -2.020000000    -2.801000000
H     3.554000000    -1.143000000    -2.887000000
C     1.896000000    -2.121000000    -3.729000000
O     1.579000000    -1.004000000    -4.457000000
C     0.589000000    -0.068000000    -4.070000000
C     0.934000000     1.455000000    -4.255000000
C     2.030000000     2.100000000    -3.719000000
H     2.850000000     1.562000000    -3.251000000
C     0.008000000     2.254000000    -4.948000000
H    -0.951000000     1.922000000    -5.336000000
O    -0.599000000    -0.491000000    -4.862000000
H     0.386000000    -0.342000000    -3.024000000
C     1.008000000    -3.244000000    -3.690000000
C    -0.207000000    -3.238000000    -4.527000000
H    -0.517000000    -4.267000000    -4.723000000
H     0.045000000    -2.825000000    -5.506000000
C    -1.397000000    -2.516000000    -3.856000000
C    -1.532000000    -1.159000000    -4.132000000
C    -2.645000000    -0.440000000    -3.751000000
H    -2.730000000     0.620000000    -3.976000000
C    -3.493000000    -1.016000000    -2.833000000
O    -4.446000000    -0.332000000    -2.180000000
C    -4.245000000     0.115000000    -0.784000000
H    -3.176000000    -0.009000000    -0.553000000
C    -4.586000000     1.558000000    -0.519000000
C    -5.143000000     2.024000000     0.683000000
H    -5.397000000     1.350000000     1.496000000
C    -4.287000000     2.501000000    -1.515000000
H    -3.860000000     2.096000000    -2.429000000
C    -4.493000000     3.874000000    -1.331000000
O    -4.224000000     4.768000000    -2.294000000
C    -5.026000000     4.290000000    -0.155000000
H    -5.212000000     5.356000000    -0.054000000
C    -5.266000000     3.365000000     0.907000000
O    -5.630000000     3.927000000     2.126000000
C    -5.221000000     3.399000000     3.342000000
C    -3.868000000     3.305000000     3.612000000
H    -3.202000000     3.848000000     2.947000000
C    -6.174000000     2.901000000     4.259000000
H    -7.212000000     3.145000000     4.047000000
C    -5.787000000     2.215000000     5.397000000
H    -6.545000000     1.798000000     6.056000000
C    -4.395000000     2.135000000     5.695000000
H    -4.023000000     1.723000000     6.629000000
C    -3.472000000     2.719000000     4.789000000
O    -2.128000000     2.528000000     5.144000000
C    -1.304000000     1.418000000     5.217000000
C    -0.119000000     1.498000000     5.911000000
H     0.270000000     2.419000000     6.335000000
C     0.742000000     0.374000000     6.018000000
O     1.987000000     0.454000000     6.663000000
C     3.196000000    -0.092000000     6.225000000
C     3.919000000     0.409000000     5.131000000
H     3.579000000     1.283000000     4.581000000
C     3.739000000    -1.095000000     7.071000000
H     3.228000000    -1.579000000     7.899000000
C     4.988000000    -1.650000000     6.756000000
H     5.386000000    -2.457000000     7.366000000
C     5.729000000    -1.079000000     5.720000000
H     6.744000000    -1.392000000     5.491000000
C     5.181000000    -0.055000000     4.949000000
O     5.912000000     0.522000000     3.960000000
C     5.729000000     0.255000000     2.600000000
C     6.323000000     1.143000000     1.731000000
H     6.856000000     1.989000000     2.158000000
C     6.098000000     0.990000000     0.328000000
O     6.688000000     1.985000000    -0.454000000
C     6.153000000     2.304000000    -1.705000000
C     4.991000000     3.020000000    -1.870000000
H     4.432000000     3.278000000    -0.974000000
C     7.027000000     2.209000000    -2.784000000
H     7.972000000     1.720000000    -2.561000000
C     6.730000000     2.713000000    -4.067000000
H     7.373000000     2.561000000    -4.931000000
C     5.518000000     3.342000000    -4.222000000
H     5.217000000     3.802000000    -5.160000000
C     4.637000000     3.479000000    -3.091000000
O     3.415000000     4.083000000    -3.311000000
C     2.308000000     3.458000000    -3.900000000
C     1.396000000     4.242000000    -4.590000000
H     1.442000000     5.328000000    -4.624000000
C     0.259000000     3.648000000    -5.072000000
O    -0.729000000     4.424000000    -5.663000000
C    -2.024000000     4.316000000    -5.290000000
C    -2.990000000     4.285000000    -6.273000000
H    -2.705000000     4.258000000    -7.322000000
C    -4.397000000     4.255000000    -5.918000000
H    -5.147000000     4.048000000    -6.677000000
C    -4.761000000     4.333000000    -4.558000000
H    -5.790000000     4.083000000    -4.311000000
C    -3.747000000     4.471000000    -3.577000000
C    -2.379000000     4.476000000    -3.947000000
H    -1.621000000     4.787000000    -3.232000000
O     4.158000000    10.570000000    -0.656000000
H     4.893000000     9.957000000    -0.689000000
H     3.380000000    10.014000000    -0.702000000
O    -0.222000000     7.240000000    -2.796000000
H    -1.083000000     7.439000000    -2.427000000
H     0.127000000     6.550000000    -2.232000000
O    -0.336000000     4.871000000     2.461000000
H    -0.296000000     4.707000000     3.403000000
H    -0.045000000     4.051000000     2.063000000
O     4.112000000     6.856000000    -2.946000000
H     4.915000000     7.165000000    -2.528000000
H     4.123000000     5.908000000    -2.815000000
O     3.119000000     4.381000000     2.479000000
H     4.010000000     4.098000000     2.687000000
H     3.173000000     4.699000000     1.578000000
O     5.701000000     4.235000000     3.242000000
H     6.045000000     4.473000000     4.103000000
H     6.453000000     4.311000000     2.655000000
O     1.338000000     4.232000000     4.673000000
H     1.954000000     4.075000000     5.389000000
H     1.892000000     4.337000000     3.899000000
O    -2.684000000     9.244000000     0.103000000
H    -1.937000000     8.650000000     0.176000000
H    -2.374000000    10.067000000     0.480000000
O    -0.758000000     7.381000000     0.508000000
H    -0.498000000     6.962000000     1.329000000
H    -0.152000000     7.027000000    -0.143000000
O     2.083000000     8.699000000    -3.680000000
H     2.679000000     7.999000000    -3.412000000
H     1.431000000     8.739000000    -2.979000000
O     0.351000000    10.586000000    -0.698000000
H     1.116000000    10.014000000    -0.648000000
H     0.089000000    10.716000000     0.214000000
O     3.429000000     6.788000000    -5.848000000
H     2.836000000     7.537000000    -5.909000000
H     3.546000000     6.651000000    -4.908000000
O     6.171000000     8.447000000    -1.437000000
H     7.122000000     8.549000000    -1.441000000
H     6.003000000     7.792000000    -0.759000000
O    -0.320000000     7.507000000    -5.520000000
H    -0.403000000     7.474000000    -4.567000000
H     0.418000000     8.097000000    -5.676000000
O    -2.695000000     6.290000000     2.616000000
H    -2.058000000     5.621000000     2.365000000
H    -2.234000000     7.119000000     2.486000000
O     2.485000000     7.984000000    -0.720000000
H     2.871000000     7.756000000     0.126000000
H     2.229000000     7.143000000    -1.100000000
O     1.597000000    10.001000000     1.872000000
H     1.626000000     9.047000000     1.941000000
H     1.313000000    10.296000000     2.737000000
O     2.192000000     7.238000000     2.662000000
H     1.496000000     6.621000000     2.888000000
H     2.991000000     6.710000000     2.670000000
O     5.181000000     6.539000000     0.353000000
H     5.270000000     6.574000000     1.306000000
H     4.360000000     6.069000000     0.206000000
