201
-1255.72099
C    -0.873000000     0.556000000     4.714000000
H     0.086000000     0.097000000     4.487000000
C    -2.098000000     0.001000000     4.324000000
C    -3.270000000     0.747000000     4.554000000
H    -4.181000000     0.324000000     4.139000000
C    -2.137000000    -1.373000000     3.653000000
O    -1.354000000    -2.346000000     4.322000000
H    -1.615000000    -1.187000000     2.702000000
O    -3.455000000    -1.891000000     3.453000000
C    -3.710000000    -2.266000000     2.272000000
C    -4.246000000    -1.327000000     1.338000000
H    -4.506000000    -0.317000000     1.646000000
C    -4.285000000    -1.591000000     0.019000000
O    -4.710000000    -0.538000000    -0.841000000
C    -3.921000000    -2.845000000    -0.492000000
C    -3.966000000    -3.073000000    -1.994000000
H    -4.018000000    -4.137000000    -2.233000000
C    -2.704000000    -2.586000000    -2.710000000
C    -1.715000000    -3.517000000    -3.137000000
H    -1.661000000    -4.529000000    -2.742000000
H    -4.870000000    -2.656000000    -2.444000000
C    -3.290000000    -3.712000000     0.372000000
H    -2.738000000    -4.596000000     0.063000000
C    -3.277000000    -3.465000000     1.755000000
C    -2.522000000    -4.423000000     2.711000000
H    -2.640000000    -5.405000000     2.249000000
H    -2.990000000    -4.426000000     3.698000000
C    -1.042000000    -4.144000000     2.713000000
C    -0.132000000    -4.724000000     1.777000000
H    -0.498000000    -5.450000000     1.056000000
C    -0.521000000    -3.141000000     3.491000000
C     0.787000000    -2.678000000     3.366000000
H     1.082000000    -1.865000000     4.026000000
C     1.694000000    -3.414000000     2.600000000
O     3.025000000    -3.109000000     2.581000000
C     3.410000000    -2.248000000     1.452000000
C     4.159000000    -1.016000000     1.895000000
C     4.666000000    -0.076000000     1.004000000
H     4.582000000    -0.363000000    -0.041000000
C     4.268000000    -0.736000000     3.285000000
H     3.823000000    -1.419000000     4.005000000
O     4.058000000    -2.993000000     0.438000000
H     2.516000000    -1.857000000     0.944000000
C     1.235000000    -4.415000000     1.737000000
C     2.135000000    -5.084000000     0.725000000
H     1.685000000    -6.038000000     0.444000000
H     3.128000000    -5.282000000     1.135000000
C     2.430000000    -4.320000000    -0.598000000
C     1.599000000    -4.527000000    -1.711000000
H     0.876000000    -5.336000000    -1.779000000
C     3.265000000    -3.270000000    -0.669000000
C     3.454000000    -2.484000000    -1.836000000
H     4.189000000    -1.684000000    -1.860000000
C     2.631000000    -2.753000000    -2.906000000
O     2.728000000    -1.931000000    -3.968000000
C     1.726000000    -0.851000000    -3.877000000
C     2.198000000     0.525000000    -4.372000000
C     3.461000000     0.947000000    -4.118000000
H     4.117000000     0.290000000    -3.553000000
C     1.335000000     1.329000000    -5.092000000
H     0.352000000     0.980000000    -5.398000000
O     0.646000000    -1.225000000    -4.702000000
H     1.291000000    -0.730000000    -2.874000000
C     1.620000000    -3.721000000    -2.849000000
C     0.672000000    -3.980000000    -3.952000000
H     0.337000000    -5.013000000    -3.841000000
H     1.261000000    -3.788000000    -4.851000000
C    -0.566000000    -3.059000000    -3.866000000
C    -0.495000000    -1.746000000    -4.174000000
C    -1.597000000    -0.893000000    -3.994000000
H    -1.503000000     0.168000000    -4.213000000
C    -2.696000000    -1.317000000    -3.265000000
O    -3.615000000    -0.390000000    -2.948000000
C    -3.634000000     0.066000000    -1.554000000
H    -2.658000000    -0.230000000    -1.141000000
C    -3.707000000     1.629000000    -1.570000000
C    -4.205000000     2.329000000    -0.470000000
H    -4.639000000     1.766000000     0.352000000
C    -3.191000000     2.353000000    -2.655000000
H    -2.708000000     1.866000000    -3.499000000
C    -3.070000000     3.712000000    -2.530000000
O    -2.475000000     4.491000000    -3.515000000
C    -3.566000000     4.420000000    -1.458000000
H    -3.467000000     5.500000000    -1.387000000
C    -4.166000000     3.734000000    -0.416000000
O    -4.642000000     4.478000000     0.640000000
C    -5.184000000     3.862000000     1.748000000
C    -4.403000000     3.532000000     2.812000000
H    -3.374000000     3.882000000     2.791000000
C    -6.521000000     3.428000000     1.720000000
H    -7.154000000     3.689000000     0.876000000
C    -7.127000000     2.876000000     2.819000000
H    -8.175000000     2.592000000     2.765000000
C    -6.343000000     2.738000000     3.966000000
H    -6.863000000     2.358000000     4.842000000
C    -4.985000000     2.981000000     3.966000000
O    -4.333000000     2.772000000     5.158000000
C    -3.172000000     2.008000000     5.210000000
C    -1.931000000     2.559000000     5.532000000
H    -1.836000000     3.543000000     5.983000000
C    -0.800000000     1.804000000     5.236000000
O     0.418000000     2.432000000     5.496000000
C     1.463000000     1.738000000     6.051000000
C     2.620000000     1.645000000     5.241000000
H     2.783000000     2.121000000     4.277000000
C     1.367000000     1.150000000     7.253000000
H     0.468000000     1.213000000     7.860000000
C     2.395000000     0.344000000     7.717000000
H     2.332000000    -0.072000000     8.719000000
C     3.548000000     0.257000000     6.990000000
H     4.428000000    -0.296000000     7.307000000
C     3.674000000     0.800000000     5.708000000
O     4.872000000     0.632000000     5.088000000
C     4.866000000     0.395000000     3.744000000
C     5.395000000     1.335000000     2.887000000
H     5.849000000     2.245000000     3.271000000
C     5.308000000     1.089000000     1.505000000
O     5.623000000     2.107000000     0.582000000
C     6.123000000     1.880000000    -0.678000000
C     5.453000000     2.366000000    -1.810000000
H     4.491000000     2.872000000    -1.769000000
C     7.321000000     1.166000000    -0.823000000
H     7.950000000     0.962000000     0.040000000
C     7.782000000     1.017000000    -2.159000000
H     8.796000000     0.666000000    -2.332000000
C     7.118000000     1.505000000    -3.282000000
H     7.559000000     1.234000000    -4.238000000
C     5.904000000     2.223000000    -3.098000000
O     5.157000000     2.609000000    -4.240000000
C     3.871000000     2.228000000    -4.444000000
C     3.000000000     3.051000000    -5.181000000
H     3.446000000     3.893000000    -5.705000000
C     1.749000000     2.582000000    -5.530000000
O     0.985000000     3.280000000    -6.428000000
C    -0.358000000     3.510000000    -6.233000000
C    -1.277000000     3.300000000    -7.279000000
H    -0.852000000     3.029000000    -8.242000000
C    -2.689000000     3.308000000    -6.969000000
H    -3.434000000     2.942000000    -7.671000000
C    -3.077000000     3.729000000    -5.689000000
H    -4.139000000     3.782000000    -5.460000000
C    -2.159000000     4.126000000    -4.766000000
C    -0.835000000     4.031000000    -5.016000000
H    -0.104000000     4.148000000    -4.220000000
O     5.533000000     5.935000000     0.026000000
H     4.625000000     5.738000000    -0.204000000
H     5.481000000     6.314000000     0.903000000
O     7.037000000     7.001000000    -4.392000000
H     6.128000000     7.044000000    -4.096000000
H     7.248000000     6.067000000    -4.383000000
O     2.118000000     6.699000000    -5.826000000
H     2.940000000     6.279000000    -5.573000000
H     2.123000000     7.535000000    -5.361000000
O     0.774000000     4.242000000     3.411000000
H     1.711000000     4.144000000     3.244000000
H     0.714000000     4.974000000     4.024000000
O     3.427000000     4.868000000     2.827000000
H     4.370000000     4.982000000     2.950000000
H     3.278000000     5.084000000     1.907000000
O     2.366000000     8.904000000     3.150000000
H     2.481000000     8.187000000     3.774000000
H     2.115000000     8.473000000     2.334000000
O     2.484000000     6.856000000     4.790000000
H     2.969000000     7.116000000     5.573000000
H     3.027000000     6.180000000     4.386000000
O    -0.621000000     5.748000000    -0.826000000
H    -0.602000000     5.021000000    -0.203000000
H    -0.099000000     5.441000000    -1.567000000
O     3.583000000    10.002000000     0.562000000
H     3.703000000     9.371000000     1.273000000
H     2.665000000    10.264000000     0.628000000
O    -2.879000000     6.678000000     0.737000000
H    -3.374000000     5.859000000     0.749000000
H    -2.144000000     6.505000000     0.150000000
O     5.023000000     5.930000000    -2.775000000
H     4.436000000     5.174000000    -2.765000000
H     5.643000000     5.762000000    -2.066000000
O     7.797000000     4.422000000     0.775000000
H     8.366000000     4.661000000     0.044000000
H     6.930000000     4.324000000     0.381000000
O     2.093000000     7.148000000     1.045000000
H     1.608000000     7.466000000     0.283000000
H     2.565000000     6.379000000     0.725000000
O     1.559000000     9.932000000    -3.104000000
H     1.437000000     9.927000000    -4.053000000
H     1.906000000     9.062000000    -2.903000000
O     5.363000000     8.837000000    -1.398000000
H     5.269000000     7.953000000    -1.043000000
H     4.951000000     9.402000000    -0.745000000
O    -1.088000000     3.874000000     1.299000000
H    -0.447000000     4.139000000     1.959000000
H    -1.128000000     2.920000000     1.374000000
O    -0.259000000     8.563000000    -0.415000000
H    -0.559000000     7.658000000    -0.490000000
H    -0.245000000     8.887000000    -1.316000000
O     6.232000000     5.578000000     3.171000000
H     6.815000000     5.136000000     2.554000000
H     6.396000000     6.510000000     3.029000000
O     2.502000000     7.383000000    -2.724000000
H     2.334000000     6.466000000    -2.507000000
H     3.423000000     7.402000000    -2.984000000
