201
-1253.09945
C    -0.852000000     0.373000000     5.091000000
H    -0.019000000    -0.314000000     5.216000000
C    -1.936000000    -0.119000000     4.413000000
C    -3.156000000     0.652000000     4.445000000
H    -4.069000000     0.317000000     3.961000000
C    -1.910000000    -1.393000000     3.610000000
O    -1.309000000    -2.524000000     4.308000000
H    -1.394000000    -1.158000000     2.668000000
O    -3.241000000    -1.839000000     3.306000000
C    -3.458000000    -2.289000000     2.015000000
C    -4.070000000    -1.395000000     1.110000000
H    -4.365000000    -0.400000000     1.433000000
C    -4.211000000    -1.766000000    -0.219000000
O    -4.680000000    -0.800000000    -1.037000000
C    -3.885000000    -3.060000000    -0.733000000
C    -3.972000000    -3.278000000    -2.217000000
H    -4.022000000    -4.347000000    -2.434000000
C    -2.766000000    -2.734000000    -2.923000000
C    -1.623000000    -3.578000000    -3.023000000
H    -1.672000000    -4.594000000    -2.641000000
H    -4.825000000    -2.761000000    -2.663000000
C    -3.310000000    -3.971000000     0.165000000
H    -2.939000000    -4.884000000    -0.293000000
C    -3.087000000    -3.526000000     1.526000000
C    -2.404000000    -4.524000000     2.461000000
H    -2.450000000    -5.521000000     2.018000000
H    -2.913000000    -4.643000000     3.420000000
C    -0.920000000    -4.195000000     2.605000000
C    -0.040000000    -4.875000000     1.823000000
H    -0.395000000    -5.718000000     1.236000000
C    -0.462000000    -3.222000000     3.481000000
C     0.874000000    -2.920000000     3.532000000
H     1.178000000    -2.119000000     4.202000000
C     1.820000000    -3.532000000     2.710000000
O     3.098000000    -3.077000000     2.764000000
C     3.463000000    -2.275000000     1.700000000
C     4.324000000    -1.044000000     2.016000000
C     5.395000000    -0.717000000     1.224000000
H     5.834000000    -1.505000000     0.617000000
C     3.860000000    -0.077000000     2.964000000
H     2.955000000    -0.288000000     3.527000000
O     4.033000000    -3.069000000     0.638000000
H     2.601000000    -1.772000000     1.237000000
C     1.304000000    -4.555000000     1.815000000
C     2.195000000    -5.221000000     0.723000000
H     1.723000000    -6.177000000     0.486000000
H     3.184000000    -5.470000000     1.112000000
C     2.326000000    -4.343000000    -0.470000000
C     1.572000000    -4.614000000    -1.624000000
H     0.796000000    -5.375000000    -1.595000000
C     3.204000000    -3.255000000    -0.465000000
C     3.219000000    -2.339000000    -1.506000000
H     3.898000000    -1.490000000    -1.516000000
C     2.379000000    -2.558000000    -2.639000000
O     2.516000000    -1.734000000    -3.714000000
C     1.536000000    -0.729000000    -3.759000000
C     2.061000000     0.717000000    -4.014000000
C     3.347000000     1.069000000    -3.606000000
H     3.971000000     0.355000000    -3.076000000
C     1.316000000     1.645000000    -4.684000000
H     0.390000000     1.301000000    -5.137000000
O     0.583000000    -1.066000000    -4.731000000
H     1.076000000    -0.722000000    -2.759000000
C     1.590000000    -3.738000000    -2.702000000
C     0.704000000    -3.977000000    -3.920000000
H     0.275000000    -4.973000000    -4.044000000
H     1.173000000    -3.749000000    -4.880000000
C    -0.500000000    -3.089000000    -3.733000000
C    -0.544000000    -1.710000000    -4.248000000
C    -1.661000000    -0.942000000    -4.029000000
H    -1.620000000     0.142000000    -4.092000000
C    -2.735000000    -1.483000000    -3.425000000
O    -3.769000000    -0.581000000    -3.161000000
C    -3.801000000     0.008000000    -1.886000000
H    -2.763000000    -0.046000000    -1.527000000
C    -4.099000000     1.516000000    -1.911000000
C    -4.311000000     2.093000000    -0.659000000
H    -4.284000000     1.524000000     0.267000000
C    -3.956000000     2.368000000    -3.073000000
H    -3.759000000     1.860000000    -4.013000000
C    -3.848000000     3.780000000    -2.913000000
O    -3.559000000     4.611000000    -3.904000000
C    -4.216000000     4.276000000    -1.623000000
H    -4.322000000     5.357000000    -1.591000000
C    -4.408000000     3.509000000    -0.525000000
O    -4.734000000     4.216000000     0.635000000
C    -5.319000000     3.714000000     1.780000000
C    -4.519000000     3.274000000     2.775000000
H    -3.456000000     3.159000000     2.579000000
C    -6.721000000     3.759000000     1.924000000
H    -7.353000000     4.127000000     1.120000000
C    -7.325000000     3.439000000     3.119000000
H    -8.383000000     3.472000000     3.368000000
C    -6.504000000     3.114000000     4.219000000
H    -7.021000000     2.869000000     5.143000000
C    -5.112000000     3.018000000     4.060000000
O    -4.387000000     2.529000000     5.121000000
C    -3.226000000     1.880000000     5.082000000
C    -2.139000000     2.342000000     5.750000000
H    -2.142000000     3.309000000     6.248000000
C    -0.959000000     1.571000000     5.760000000
O    -0.033000000     1.941000000     6.689000000
C     1.336000000     1.687000000     6.527000000
C     2.012000000     2.054000000     5.350000000
H     1.562000000     2.695000000     4.596000000
C     1.923000000     0.798000000     7.411000000
H     1.235000000     0.488000000     8.193000000
C     3.236000000     0.504000000     7.266000000
H     3.755000000     0.038000000     8.100000000
C     4.046000000     1.027000000     6.239000000
H     5.126000000     0.967000000     6.133000000
C     3.382000000     1.706000000     5.195000000
O     4.082000000     2.093000000     4.029000000
C     4.516000000     1.172000000     3.056000000
C     5.588000000     1.492000000     2.263000000
H     6.158000000     2.407000000     2.400000000
C     5.985000000     0.583000000     1.314000000
O     7.135000000     0.925000000     0.563000000
C     7.019000000     1.107000000    -0.743000000
C     5.977000000     1.921000000    -1.362000000
H     5.262000000     2.448000000    -0.736000000
C     8.074000000     0.565000000    -1.436000000
H     8.769000000    -0.086000000    -0.912000000
C     8.122000000     0.721000000    -2.856000000
H     8.871000000     0.253000000    -3.489000000
C     7.042000000     1.427000000    -3.505000000
H     6.997000000     1.593000000    -4.578000000
C     6.001000000     2.044000000    -2.762000000
O     5.048000000     2.862000000    -3.382000000
C     3.775000000     2.414000000    -3.818000000
C     2.924000000     3.355000000    -4.341000000
H     3.172000000     4.411000000    -4.410000000
C     1.696000000     2.982000000    -4.736000000
O     1.007000000     3.962000000    -5.501000000
C    -0.375000000     3.934000000    -5.770000000
C    -0.907000000     3.451000000    -6.956000000
H    -0.231000000     3.143000000    -7.749000000
C    -2.291000000     3.451000000    -7.191000000
H    -2.670000000     3.082000000    -8.141000000
C    -3.163000000     3.890000000    -6.199000000
H    -4.235000000     3.789000000    -6.349000000
C    -2.694000000     4.238000000    -4.955000000
C    -1.311000000     4.258000000    -4.745000000
H    -0.899000000     4.720000000    -3.851000000
O     4.724000000     4.648000000     0.464000000
H     3.773000000     4.745000000     0.513000000
H     5.065000000     5.325000000     1.047000000
O     5.804000000     6.553000000    -4.216000000
H     5.251000000     6.151000000    -3.546000000
H     5.311000000     6.448000000    -5.029000000
O     0.672000000     7.119000000    -5.438000000
H     0.957000000     6.998000000    -4.532000000
H     1.082000000     6.398000000    -5.916000000
O    -1.030000000     6.814000000     4.444000000
H    -0.629000000     5.967000000     4.247000000
H    -0.870000000     7.342000000     3.661000000
O     0.675000000     5.112000000     3.037000000
H     1.280000000     4.947000000     3.761000000
H     1.237000000     5.180000000     2.265000000
O    -0.731000000     7.875000000     1.530000000
H     0.124000000     7.877000000     1.099000000
H    -1.319000000     7.467000000     0.894000000
O     2.812000000     8.336000000     3.635000000
H     2.573000000     7.409000000     3.642000000
H     2.641000000     8.620000000     2.737000000
O    -1.811000000     6.131000000    -0.515000000
H    -2.288000000     5.539000000     0.067000000
H    -0.921000000     5.780000000    -0.537000000
O     5.771000000     6.741000000     2.121000000
H     5.562000000     7.603000000     1.762000000
H     6.669000000     6.826000000     2.442000000
O    -3.488000000     6.512000000     2.001000000
H    -4.219000000     6.063000000     1.576000000
H    -2.748000000     5.912000000     1.902000000
O     4.110000000     5.425000000    -2.260000000
H     4.583000000     4.613000000    -2.441000000
H     3.942000000     5.399000000    -1.318000000
O     7.733000000     4.208000000     0.233000000
H     7.842000000     4.735000000    -0.559000000
H     6.794000000     4.028000000     0.274000000
O     2.037000000     7.953000000     0.391000000
H     2.697000000     8.479000000    -0.060000000
H     2.249000000     7.050000000     0.159000000
O     3.644000000     8.257000000    -2.490000000
H     3.693000000     7.301000000    -2.515000000
H     4.510000000     8.533000000    -2.188000000
O     0.510000000    10.828000000     0.078000000
H     0.179000000     9.937000000     0.187000000
H     0.421000000    11.004000000    -0.859000000
O    -1.540000000     4.458000000     1.588000000
H    -1.357000000     3.704000000     1.026000000
H    -0.688000000     4.693000000     1.957000000
O    -1.672000000     8.806000000    -1.030000000
H    -1.527000000     7.860000000    -1.030000000
H    -1.002000000     9.151000000    -1.619000000
O     3.676000000     4.921000000     3.934000000
H     4.027000000     4.036000000     4.033000000
H     4.361000000     5.399000000     3.466000000
O     1.239000000     6.873000000    -2.907000000
H     1.020000000     6.187000000    -2.275000000
H     1.863000000     7.433000000    -2.446000000
