201
-1249.74142
C    -1.148000000     1.772000000     4.908000000
H    -0.417000000     1.056000000     5.275000000
C    -2.290000000     1.322000000     4.152000000
C    -3.313000000     2.234000000     3.816000000
H    -4.160000000     1.939000000     3.201000000
C    -2.383000000    -0.058000000     3.542000000
O    -1.894000000    -1.038000000     4.478000000
H    -1.604000000    -0.090000000     2.765000000
O    -3.755000000    -0.473000000     3.216000000
C    -3.978000000    -1.284000000     2.105000000
C    -4.274000000    -0.555000000     0.979000000
H    -4.438000000     0.515000000     1.087000000
C    -4.495000000    -1.194000000    -0.281000000
O    -4.774000000    -0.389000000    -1.344000000
C    -4.207000000    -2.551000000    -0.334000000
C    -4.206000000    -3.377000000    -1.653000000
H    -4.328000000    -4.430000000    -1.391000000
C    -3.021000000    -3.144000000    -2.511000000
C    -1.959000000    -4.053000000    -2.370000000
H    -2.166000000    -4.821000000    -1.629000000
H    -5.130000000    -3.059000000    -2.141000000
C    -3.704000000    -3.252000000     0.790000000
H    -3.443000000    -4.295000000     0.634000000
C    -3.660000000    -2.619000000     1.990000000
C    -3.095000000    -3.320000000     3.235000000
H    -3.435000000    -4.358000000     3.203000000
H    -3.584000000    -2.824000000     4.076000000
C    -1.630000000    -3.195000000     3.399000000
C    -0.756000000    -4.226000000     2.933000000
H    -1.056000000    -5.090000000     2.346000000
C    -1.112000000    -2.088000000     4.021000000
C     0.221000000    -1.965000000     4.317000000
H     0.633000000    -1.064000000     4.764000000
C     1.110000000    -2.935000000     3.773000000
O     2.474000000    -2.528000000     3.708000000
C     3.045000000    -2.052000000     2.406000000
C     4.160000000    -0.968000000     2.653000000
C     5.425000000    -1.042000000     2.007000000
H     5.841000000    -1.965000000     1.611000000
C     3.848000000     0.235000000     3.415000000
H     2.866000000     0.145000000     3.874000000
O     3.631000000    -3.096000000     1.625000000
H     2.201000000    -1.530000000     1.933000000
C     0.647000000    -4.041000000     3.117000000
C     1.502000000    -4.968000000     2.307000000
H     1.027000000    -5.950000000     2.282000000
H     2.406000000    -5.107000000     2.904000000
C     1.786000000    -4.462000000     0.891000000
C     0.896000000    -4.873000000    -0.147000000
H     0.017000000    -5.492000000     0.012000000
C     2.870000000    -3.614000000     0.647000000
C     3.145000000    -3.228000000    -0.622000000
H     3.798000000    -2.369000000    -0.751000000
C     2.318000000    -3.641000000    -1.672000000
O     2.495000000    -3.063000000    -2.969000000
C     1.544000000    -1.986000000    -3.244000000
C     2.214000000    -0.722000000    -3.758000000
C     3.237000000    -0.061000000    -3.026000000
H     3.729000000    -0.623000000    -2.236000000
C     1.723000000    -0.047000000    -4.927000000
H     0.845000000    -0.431000000    -5.440000000
O     0.652000000    -2.505000000    -4.215000000
H     0.979000000    -1.757000000    -2.328000000
C     1.186000000    -4.475000000    -1.454000000
C     0.310000000    -4.943000000    -2.580000000
H    -0.132000000    -5.921000000    -2.379000000
H     0.781000000    -5.126000000    -3.548000000
C    -0.751000000    -3.880000000    -2.920000000
C    -0.599000000    -2.769000000    -3.741000000
C    -1.641000000    -1.836000000    -3.920000000
H    -1.434000000    -0.977000000    -4.553000000
C    -2.820000000    -2.003000000    -3.288000000
O    -3.785000000    -1.021000000    -3.372000000
C    -3.749000000    -0.124000000    -2.294000000
H    -2.846000000    -0.214000000    -1.672000000
C    -3.601000000     1.327000000    -2.693000000
C    -3.703000000     2.323000000    -1.699000000
H    -3.819000000     1.964000000    -0.679000000
C    -3.287000000     1.768000000    -3.995000000
H    -3.280000000     1.020000000    -4.784000000
C    -3.133000000     3.135000000    -4.253000000
O    -2.788000000     3.571000000    -5.510000000
C    -3.493000000     4.089000000    -3.274000000
H    -3.600000000     5.128000000    -3.574000000
C    -3.782000000     3.678000000    -2.013000000
O    -4.224000000     4.635000000    -1.107000000
C    -4.869000000     4.335000000     0.049000000
C    -4.126000000     4.404000000     1.182000000
H    -3.099000000     4.755000000     1.138000000
C    -6.250000000     3.948000000     0.059000000
H    -6.844000000     4.027000000    -0.848000000
C    -6.862000000     3.734000000     1.299000000
H    -7.901000000     3.422000000     1.355000000
C    -6.088000000     3.895000000     2.472000000
H    -6.422000000     3.733000000     3.494000000
C    -4.733000000     4.215000000     2.415000000
O    -3.971000000     4.463000000     3.538000000
C    -3.122000000     3.593000000     4.105000000
C    -1.993000000     4.050000000     4.809000000
H    -1.891000000     5.094000000     5.095000000
C    -1.033000000     3.122000000     5.213000000
O     0.146000000     3.621000000     5.778000000
C     1.297000000     2.919000000     6.037000000
C     2.282000000     2.793000000     4.993000000
H     2.068000000     3.296000000     4.054000000
C     1.557000000     2.379000000     7.317000000
H     0.849000000     2.424000000     8.141000000
C     2.766000000     1.729000000     7.526000000
H     3.047000000     1.274000000     8.473000000
C     3.727000000     1.682000000     6.524000000
H     4.682000000     1.177000000     6.644000000
C     3.542000000     2.318000000     5.322000000
O     4.600000000     2.398000000     4.401000000
C     4.768000000     1.289000000     3.527000000
C     5.917000000     1.271000000     2.738000000
H     6.697000000     2.024000000     2.814000000
C     6.140000000     0.143000000     1.979000000
O     7.279000000     0.228000000     1.176000000
C     7.118000000     0.543000000    -0.158000000
C     5.919000000     1.060000000    -0.677000000
H     5.080000000     1.284000000    -0.022000000
C     8.180000000     0.200000000    -0.989000000
H     9.044000000    -0.288000000    -0.545000000
C     8.119000000     0.400000000    -2.391000000
H     8.930000000     0.081000000    -3.041000000
C     6.943000000     0.957000000    -2.878000000
H     6.733000000     1.111000000    -3.933000000
C     5.858000000     1.329000000    -2.069000000
O     4.741000000     1.832000000    -2.648000000
C     3.770000000     1.173000000    -3.468000000
C     3.212000000     1.824000000    -4.548000000
H     3.627000000     2.793000000    -4.813000000
C     2.181000000     1.212000000    -5.279000000
O     1.755000000     1.815000000    -6.485000000
C     0.353000000     2.023000000    -6.803000000
C     0.126000000     1.972000000    -8.149000000
H     0.847000000     1.582000000    -8.864000000
C    -1.154000000     2.292000000    -8.587000000
H    -1.463000000     2.125000000    -9.616000000
C    -2.090000000     2.901000000    -7.733000000
H    -3.022000000     3.209000000    -8.200000000
C    -1.831000000     3.003000000    -6.363000000
C    -0.570000000     2.552000000    -5.872000000
H    -0.306000000     2.535000000    -4.818000000
O     5.651000000     5.460000000     2.304000000
H     4.968000000     5.289000000     1.655000000
H     5.174000000     5.605000000     3.121000000
O     2.170000000    10.341000000    -1.975000000
H     2.214000000     9.419000000    -2.229000000
H     2.875000000    10.448000000    -1.337000000
O     3.408000000     9.042000000    -4.398000000
H     4.260000000     9.141000000    -3.973000000
H     2.847000000     8.660000000    -3.722000000
O     4.149000000     5.341000000    -4.202000000
H     3.531000000     5.334000000    -3.471000000
H     4.804000000     4.684000000    -3.968000000
O    -0.212000000     4.304000000     1.813000000
H    -0.682000000     5.093000000     1.542000000
H    -0.028000000     3.842000000     0.995000000
O    -2.066000000     6.440000000    -5.589000000
H    -2.614000000     5.657000000    -5.611000000
H    -1.409000000     6.254000000    -4.918000000
O    -0.356000000     5.588000000    -3.474000000
H     0.524000000     5.421000000    -3.136000000
H    -0.749000000     6.180000000    -2.833000000
O    -0.530000000     7.896000000    -1.589000000
H     0.363000000     8.221000000    -1.707000000
H    -1.087000000     8.615000000    -1.887000000
O     6.047000000     8.348000000     0.679000000
H     6.181000000     8.112000000     1.597000000
H     5.339000000     7.775000000     0.385000000
O     5.891000000     4.343000000    -0.747000000
H     5.855000000     3.703000000    -1.458000000
H     4.977000000     4.586000000    -0.597000000
O     2.715000000     7.562000000    -2.115000000
H     3.290000000     7.270000000    -1.408000000
H     2.238000000     6.774000000    -2.377000000
O     1.150000000     8.157000000    -5.963000000
H     1.297000000     7.238000000    -5.740000000
H     1.853000000     8.627000000    -5.514000000
O     2.047000000     5.280000000    -5.929000000
H     1.936000000     4.331000000    -5.991000000
H     2.824000000     5.394000000    -5.382000000
O     6.667000000     6.579000000    -2.075000000
H     7.103000000     5.911000000    -2.605000000
H     6.161000000     6.082000000    -1.432000000
O     6.530000000     3.910000000    -4.292000000
H     6.696000000     3.703000000    -5.212000000
H     7.369000000     3.754000000    -3.857000000
O     5.240000000     6.705000000    -6.285000000
H     4.967000000     6.421000000    -5.413000000
H     6.191000000     6.792000000    -6.221000000
O     2.379000000     6.010000000     2.698000000
H     2.641000000     6.304000000     3.570000000
H     1.905000000     5.193000000     2.853000000
O    -1.494000000     7.018000000     0.774000000
H    -2.401000000     7.257000000     0.964000000
H    -1.382000000     7.221000000    -0.155000000
O     3.690000000     7.054000000     0.518000000
H     3.063000000     7.082000000     1.241000000
H     3.492000000     6.237000000     0.060000000
