201
-1238.46495
C    -0.862000000     0.490000000     5.060000000
H    -0.028000000    -0.191000000     5.208000000
C    -1.992000000     0.173000000     4.263000000
C    -3.106000000     1.047000000     4.137000000
H    -3.984000000     0.757000000     3.566000000
C    -1.960000000    -1.116000000     3.405000000
O    -1.198000000    -2.160000000     4.093000000
H    -1.506000000    -0.912000000     2.423000000
O    -3.324000000    -1.652000000     3.353000000
C    -3.688000000    -2.007000000     2.109000000
C    -4.335000000    -1.077000000     1.233000000
H    -4.579000000    -0.055000000     1.513000000
C    -4.531000000    -1.404000000    -0.139000000
O    -4.951000000    -0.335000000    -0.980000000
C    -3.979000000    -2.597000000    -0.644000000
C    -4.052000000    -3.033000000    -2.109000000
H    -4.197000000    -4.114000000    -2.160000000
C    -2.853000000    -2.548000000    -2.885000000
C    -1.673000000    -3.330000000    -2.963000000
H    -1.661000000    -4.320000000    -2.513000000
H    -4.955000000    -2.600000000    -2.545000000
C    -3.560000000    -3.593000000     0.295000000
H    -3.312000000    -4.590000000    -0.061000000
C    -3.356000000    -3.313000000     1.697000000
C    -2.477000000    -4.252000000     2.572000000
H    -2.663000000    -5.291000000     2.293000000
H    -2.905000000    -4.209000000     3.575000000
C    -0.987000000    -3.974000000     2.599000000
C    -0.182000000    -4.726000000     1.845000000
H    -0.505000000    -5.506000000     1.160000000
C    -0.445000000    -2.952000000     3.352000000
C     0.889000000    -2.701000000     3.337000000
H     1.214000000    -1.869000000     3.957000000
C     1.757000000    -3.390000000     2.533000000
O     3.084000000    -3.092000000     2.459000000
C     3.501000000    -2.205000000     1.476000000
C     4.393000000    -1.083000000     2.014000000
C     5.402000000    -0.587000000     1.245000000
H     5.551000000    -0.986000000     0.245000000
C     4.136000000    -0.465000000     3.274000000
H     3.356000000    -0.746000000     3.977000000
O     4.145000000    -2.936000000     0.465000000
H     2.549000000    -1.758000000     1.153000000
C     1.253000000    -4.425000000     1.665000000
C     2.121000000    -5.133000000     0.696000000
H     1.692000000    -6.086000000     0.379000000
H     3.048000000    -5.442000000     1.183000000
C     2.355000000    -4.219000000    -0.547000000
C     1.485000000    -4.288000000    -1.584000000
H     0.622000000    -4.946000000    -1.524000000
C     3.320000000    -3.261000000    -0.615000000
C     3.369000000    -2.351000000    -1.744000000
H     4.058000000    -1.510000000    -1.752000000
C     2.658000000    -2.566000000    -2.889000000
O     2.584000000    -1.583000000    -3.939000000
C     1.471000000    -0.661000000    -3.951000000
C     2.013000000     0.737000000    -4.212000000
C     3.135000000     1.150000000    -3.451000000
H     3.512000000     0.404000000    -2.756000000
C     1.418000000     1.602000000    -5.115000000
H     0.468000000     1.410000000    -5.607000000
O     0.413000000    -1.034000000    -4.924000000
H     1.038000000    -0.723000000    -2.942000000
C     1.657000000    -3.528000000    -2.743000000
C     0.622000000    -3.802000000    -3.910000000
H     0.346000000    -4.847000000    -3.757000000
H     0.936000000    -3.772000000    -4.955000000
C    -0.598000000    -2.893000000    -3.740000000
C    -0.599000000    -1.594000000    -4.289000000
C    -1.715000000    -0.757000000    -4.061000000
H    -1.590000000     0.282000000    -4.357000000
C    -2.815000000    -1.234000000    -3.398000000
O    -3.834000000    -0.314000000    -3.068000000
C    -3.871000000     0.269000000    -1.754000000
H    -2.931000000     0.023000000    -1.239000000
C    -3.899000000     1.696000000    -1.795000000
C    -4.600000000     2.390000000    -0.772000000
H    -5.008000000     1.788000000     0.035000000
C    -3.322000000     2.393000000    -2.876000000
H    -2.658000000     1.891000000    -3.576000000
C    -3.481000000     3.783000000    -2.916000000
O    -2.953000000     4.530000000    -3.993000000
C    -4.250000000     4.463000000    -1.945000000
H    -4.378000000     5.542000000    -1.973000000
C    -4.806000000     3.786000000    -0.915000000
O    -5.231000000     4.488000000     0.242000000
C    -5.575000000     3.853000000     1.413000000
C    -4.718000000     3.809000000     2.565000000
H    -3.739000000     4.259000000     2.425000000
C    -6.831000000     3.208000000     1.467000000
H    -7.521000000     3.248000000     0.628000000
C    -7.137000000     2.455000000     2.611000000
H    -8.074000000     1.931000000     2.783000000
C    -6.327000000     2.481000000     3.717000000
H    -6.557000000     2.002000000     4.665000000
C    -5.077000000     3.112000000     3.719000000
O    -4.171000000     3.110000000     4.744000000
C    -3.076000000     2.250000000     4.814000000
C    -2.077000000     2.450000000     5.743000000
H    -2.128000000     3.360000000     6.336000000
C    -0.928000000     1.608000000     5.836000000
O     0.187000000     1.930000000     6.634000000
C     1.408000000     1.277000000     6.722000000
C     2.411000000     1.665000000     5.807000000
H     2.114000000     2.478000000     5.150000000
C     1.753000000     0.295000000     7.637000000
H     0.970000000     0.089000000     8.362000000
C     3.003000000    -0.272000000     7.756000000
H     3.220000000    -0.919000000     8.602000000
C     3.959000000     0.085000000     6.768000000
H     4.943000000    -0.374000000     6.829000000
C     3.673000000     1.069000000     5.841000000
O     4.592000000     1.375000000     4.904000000
C     4.874000000     0.631000000     3.718000000
C     5.808000000     1.141000000     2.875000000
H     6.424000000     1.989000000     3.165000000
C     6.107000000     0.536000000     1.673000000
O     7.131000000     1.041000000     0.918000000
C     6.975000000     1.164000000    -0.447000000
C     5.865000000     1.925000000    -0.947000000
H     5.247000000     2.523000000    -0.282000000
C     7.764000000     0.434000000    -1.331000000
H     8.633000000    -0.029000000    -0.871000000
C     7.542000000     0.503000000    -2.712000000
H     8.283000000     0.140000000    -3.419000000
C     6.471000000     1.287000000    -3.197000000
H     6.371000000     1.439000000    -4.268000000
C     5.655000000     1.983000000    -2.297000000
O     4.683000000     2.832000000    -2.778000000
C     3.633000000     2.425000000    -3.585000000
C     3.094000000     3.331000000    -4.489000000
H     3.499000000     4.321000000    -4.679000000
C     1.984000000     2.915000000    -5.222000000
O     1.352000000     3.816000000    -6.062000000
C    -0.019000000     3.760000000    -6.150000000
C    -0.634000000     3.258000000    -7.318000000
H     0.003000000     2.909000000    -8.126000000
C    -2.008000000     3.187000000    -7.334000000
H    -2.538000000     2.868000000    -8.228000000
C    -2.763000000     3.543000000    -6.218000000
H    -3.844000000     3.458000000    -6.135000000
C    -2.162000000     4.010000000    -5.027000000
C    -0.788000000     4.055000000    -5.038000000
H    -0.223000000     4.322000000    -4.149000000
O     3.863000000     7.009000000    -2.276000000
H     3.117000000     6.495000000    -1.967000000
H     4.485000000     6.357000000    -2.600000000
O     2.098000000     9.704000000    -1.784000000
H     2.448000000     9.579000000    -0.902000000
H     2.519000000     9.022000000    -2.307000000
O     3.473000000     4.568000000     2.904000000
H     3.394000000     4.639000000     1.953000000
H     2.616000000     4.253000000     3.193000000
O    -0.749000000     7.930000000    -3.928000000
H    -0.315000000     7.308000000    -3.344000000
H    -0.178000000     7.977000000    -4.695000000
O    -1.532000000     8.499000000     0.017000000
H    -0.721000000     8.075000000    -0.262000000
H    -1.437000000     9.408000000    -0.267000000
O     0.017000000     6.151000000    -2.086000000
H     0.752000000     5.588000000    -1.844000000
H    -0.733000000     5.777000000    -1.623000000
O     5.963000000     5.404000000    -3.179000000
H     6.896000000     5.618000000    -3.165000000
H     5.926000000     4.514000000    -3.529000000
O    -2.421000000     5.562000000     0.348000000
H    -2.004000000     6.339000000    -0.026000000
H    -3.359000000     5.725000000     0.253000000
O     3.566000000     7.575000000    -4.969000000
H     4.462000000     7.349000000    -5.219000000
H     3.541000000     7.442000000    -4.022000000
O     8.259000000     4.265000000    -0.562000000
H     8.332000000     5.070000000    -1.075000000
H     7.341000000     4.235000000    -0.292000000
O     1.093000000     6.965000000     1.087000000
H     0.940000000     6.249000000     1.703000000
H     1.267000000     6.530000000     0.252000000
O     5.565000000     9.105000000    -1.187000000
H     5.094000000     8.363000000    -1.567000000
H     6.055000000     9.478000000    -1.919000000
O     6.547000000     6.195000000     2.222000000
H     6.952000000     7.008000000     1.920000000
H     6.189000000     5.797000000     1.428000000
O     2.652000000     8.996000000     1.242000000
H     2.021000000     8.281000000     1.165000000
H     3.040000000     8.881000000     2.110000000
O     5.553000000     5.063000000    -0.077000000
H     4.619000000     4.865000000    -0.006000000
H     5.698000000     5.204000000    -1.012000000
O    -1.386000000     8.239000000     2.873000000
H    -1.173000000     7.324000000     2.692000000
H    -1.289000000     8.680000000     2.029000000
O    -0.120000000     4.257000000     1.857000000
H    -1.046000000     4.251000000     1.616000000
H     0.324000000     3.850000000     1.113000000
O     4.109000000     7.241000000     3.213000000
H     3.738000000     6.366000000     3.105000000
H     4.962000000     7.195000000     2.781000000
O     6.070000000     4.058000000     4.311000000
H     5.546000000     3.407000000     3.843000000
H     6.266000000     4.725000000     3.653000000
