201
-1240.39573
C    -0.712000000     0.653000000     4.114000000
H     0.114000000     0.157000000     3.612000000
C    -1.980000000     0.128000000     4.098000000
C    -3.063000000     0.835000000     4.498000000
H    -4.053000000     0.454000000     4.258000000
C    -2.158000000    -1.185000000     3.338000000
O    -1.463000000    -2.250000000     4.011000000
H    -1.707000000    -0.993000000     2.353000000
O    -3.525000000    -1.533000000     3.159000000
C    -3.834000000    -1.954000000     1.888000000
C    -4.475000000    -1.023000000     1.137000000
H    -4.741000000    -0.035000000     1.503000000
C    -4.779000000    -1.287000000    -0.226000000
O    -4.996000000    -0.176000000    -1.041000000
C    -4.315000000    -2.499000000    -0.736000000
C    -4.464000000    -2.773000000    -2.199000000
H    -4.688000000    -3.833000000    -2.338000000
C    -3.236000000    -2.352000000    -2.931000000
C    -2.224000000    -3.299000000    -3.053000000
H    -2.438000000    -4.337000000    -2.810000000
H    -5.365000000    -2.214000000    -2.460000000
C    -3.656000000    -3.427000000     0.071000000
H    -3.209000000    -4.354000000    -0.282000000
C    -3.481000000    -3.248000000     1.411000000
C    -2.849000000    -4.321000000     2.346000000
H    -3.056000000    -5.284000000     1.874000000
H    -3.361000000    -4.194000000     3.302000000
C    -1.339000000    -4.162000000     2.532000000
C    -0.396000000    -4.928000000     1.763000000
H    -0.837000000    -5.577000000     1.011000000
C    -0.736000000    -3.138000000     3.302000000
C     0.685000000    -2.891000000     3.299000000
H     1.137000000    -2.096000000     3.886000000
C     1.568000000    -3.753000000     2.562000000
O     2.866000000    -3.497000000     2.621000000
C     3.404000000    -2.590000000     1.507000000
C     4.533000000    -1.635000000     1.968000000
C     5.618000000    -1.325000000     1.116000000
H     5.676000000    -1.774000000     0.128000000
C     4.415000000    -0.780000000     3.088000000
H     3.514000000    -0.941000000     3.674000000
O     3.865000000    -3.440000000     0.460000000
H     2.593000000    -1.955000000     1.121000000
C     0.986000000    -4.767000000     1.771000000
C     1.773000000    -5.486000000     0.765000000
H     1.169000000    -6.328000000     0.422000000
H     2.724000000    -5.787000000     1.210000000
C     1.940000000    -4.577000000    -0.512000000
C     0.992000000    -4.571000000    -1.608000000
H     0.158000000    -5.268000000    -1.597000000
C     2.997000000    -3.595000000    -0.533000000
C     3.150000000    -2.773000000    -1.615000000
H     3.908000000    -1.994000000    -1.621000000
C     2.214000000    -2.776000000    -2.635000000
O     2.320000000    -1.724000000    -3.532000000
C     1.238000000    -0.774000000    -3.587000000
C     1.928000000     0.604000000    -3.783000000
C     3.014000000     0.891000000    -3.021000000
H     3.531000000     0.106000000    -2.475000000
C     1.332000000     1.574000000    -4.624000000
H     0.521000000     1.444000000    -5.336000000
O     0.367000000    -1.162000000    -4.642000000
H     0.693000000    -0.752000000    -2.632000000
C     1.165000000    -3.714000000    -2.691000000
C     0.140000000    -3.825000000    -3.854000000
H    -0.295000000    -4.821000000    -3.962000000
H     0.655000000    -3.586000000    -4.786000000
C    -1.015000000    -2.849000000    -3.633000000
C    -0.905000000    -1.575000000    -4.210000000
C    -1.932000000    -0.694000000    -4.070000000
H    -1.788000000     0.227000000    -4.629000000
C    -3.086000000    -1.008000000    -3.390000000
O    -3.972000000    -0.064000000    -3.136000000
C    -3.890000000     0.375000000    -1.751000000
H    -2.916000000     0.069000000    -1.341000000
C    -4.009000000     1.925000000    -1.642000000
C    -4.176000000     2.591000000    -0.412000000
H    -4.386000000     2.070000000     0.518000000
C    -3.705000000     2.653000000    -2.779000000
H    -3.430000000     2.230000000    -3.742000000
C    -3.650000000     4.023000000    -2.723000000
O    -3.370000000     4.817000000    -3.811000000
C    -3.862000000     4.675000000    -1.535000000
H    -4.018000000     5.749000000    -1.489000000
C    -4.127000000     4.005000000    -0.317000000
O    -4.383000000     4.721000000     0.820000000
C    -4.951000000     4.119000000     1.921000000
C    -4.131000000     3.705000000     3.046000000
H    -3.058000000     3.882000000     3.024000000
C    -6.382000000     3.964000000     1.936000000
H    -6.944000000     4.203000000     1.037000000
C    -6.959000000     3.321000000     3.052000000
H    -8.026000000     3.121000000     2.990000000
C    -6.154000000     2.933000000     4.129000000
H    -6.615000000     2.340000000     4.915000000
C    -4.749000000     3.155000000     4.209000000
O    -3.973000000     2.889000000     5.312000000
C    -2.916000000     2.024000000     5.135000000
C    -1.615000000     2.555000000     5.314000000
H    -1.563000000     3.563000000     5.719000000
C    -0.522000000     1.857000000     4.822000000
O     0.811000000     2.315000000     4.890000000
C     1.898000000     1.701000000     5.509000000
C     3.126000000     1.646000000     4.834000000
H     3.289000000     2.141000000     3.879000000
C     1.770000000     1.045000000     6.766000000
H     0.847000000     1.058000000     7.340000000
C     2.909000000     0.379000000     7.202000000
H     2.741000000    -0.088000000     8.169000000
C     4.131000000     0.355000000     6.551000000
H     4.948000000    -0.215000000     6.984000000
C     4.203000000     0.979000000     5.328000000
O     5.349000000     0.903000000     4.590000000
C     5.439000000     0.075000000     3.533000000
C     6.552000000     0.232000000     2.715000000
H     7.310000000     0.969000000     2.968000000
C     6.580000000    -0.425000000     1.496000000
O     7.637000000    -0.078000000     0.580000000
C     7.312000000     0.390000000    -0.678000000
C     6.126000000     1.153000000    -0.917000000
H     5.548000000     1.609000000    -0.118000000
C     8.128000000     0.027000000    -1.707000000
H     8.943000000    -0.675000000    -1.547000000
C     7.839000000     0.433000000    -3.028000000
H     8.452000000     0.171000000    -3.887000000
C     6.687000000     1.215000000    -3.263000000
H     6.449000000     1.548000000    -4.270000000
C     5.825000000     1.498000000    -2.243000000
O     4.738000000     2.356000000    -2.375000000
C     3.678000000     2.114000000    -3.210000000
C     2.980000000     3.156000000    -3.848000000
H     3.374000000     4.169000000    -3.827000000
C     1.808000000     2.835000000    -4.530000000
O     1.190000000     3.873000000    -5.124000000
C    -0.121000000     4.025000000    -5.386000000
C    -0.481000000     3.898000000    -6.745000000
H     0.280000000     3.602000000    -7.464000000
C    -1.825000000     4.213000000    -7.167000000
H    -1.986000000     4.208000000    -8.242000000
C    -2.768000000     4.437000000    -6.161000000
H    -3.822000000     4.506000000    -6.415000000
C    -2.429000000     4.542000000    -4.759000000
C    -1.092000000     4.302000000    -4.400000000
H    -0.719000000     4.381000000    -3.382000000
O     3.763000000     4.389000000     3.124000000
H     3.096000000     5.039000000     3.346000000
H     3.800000000     4.400000000     2.168000000
O     4.579000000     6.174000000    -4.285000000
H     5.009000000     7.028000000    -4.332000000
H     5.229000000     5.559000000    -4.626000000
O     3.743000000     8.420000000    -2.139000000
H     4.084000000     7.546000000    -1.946000000
H     3.626000000     8.427000000    -3.088000000
O    -0.466000000     4.832000000     2.401000000
H     0.361000000     5.301000000     2.512000000
H    -0.356000000     4.342000000     1.586000000
O     0.220000000     8.978000000     2.386000000
H     0.486000000     9.850000000     2.095000000
H     0.303000000     8.429000000     1.606000000
O    -0.726000000     7.649000000    -3.485000000
H     0.083000000     7.140000000    -3.527000000
H    -1.150000000     7.496000000    -4.329000000
O     2.184000000     7.543000000    -5.898000000
H     3.064000000     7.871000000    -5.712000000
H     1.998000000     6.938000000    -5.180000000
O    -2.696000000     7.114000000     1.100000000
H    -1.776000000     6.859000000     1.177000000
H    -3.070000000     6.478000000     0.490000000
O     5.165000000     5.761000000    -1.019000000
H     5.314000000     5.153000000    -1.742000000
H     4.681000000     5.248000000    -0.371000000
O     6.457000000     4.707000000     1.289000000
H     5.845000000     5.113000000     0.674000000
H     5.935000000     4.547000000     2.075000000
O     6.793000000     7.831000000    -0.008000000
H     6.758000000     8.578000000    -0.606000000
H     6.556000000     7.079000000    -0.551000000
O    -0.201000000     6.808000000     0.007000000
H     0.543000000     6.274000000    -0.272000000
H    -0.212000000     7.543000000    -0.606000000
O     1.777000000     6.389000000     2.906000000
H     2.154000000     6.565000000     2.044000000
H     1.615000000     7.256000000     3.278000000
O     6.393000000     3.746000000     4.102000000
H     5.442000000     3.809000000     4.013000000
H     6.526000000     3.315000000     4.946000000
O     1.624000000     6.042000000    -3.135000000
H     2.420000000     5.636000000    -3.479000000
H     1.618000000     5.808000000    -2.207000000
O     4.826000000     8.566000000     2.136000000
H     5.610000000     8.167000000     1.758000000
H     4.137000000     8.396000000     1.494000000
O     7.001000000     4.657000000    -2.977000000
H     7.548000000     5.442000000    -2.990000000
H     6.616000000     4.618000000    -3.852000000
O     8.546000000     4.253000000    -0.586000000
H     8.038000000     4.556000000     0.167000000
H     7.887000000     3.990000000    -1.228000000
O     2.910000000     7.745000000     0.364000000
H     2.691000000     6.827000000     0.204000000
H     2.968000000     8.133000000    -0.509000000
