201
-1230.29190
C    -4.932000000     1.443000000    -1.692000000
H    -4.670000000     1.738000000    -2.705000000
C    -4.350000000     1.991000000    -0.554000000
C    -4.793000000     1.593000000     0.682000000
H    -4.346000000     2.063000000     1.554000000
C    -3.137000000     2.941000000    -0.652000000
O    -3.056000000     3.655000000    -1.947000000
H    -2.248000000     2.301000000    -0.545000000
O    -3.124000000     3.986000000     0.381000000
C    -1.803000000     4.092000000     0.970000000
C    -1.570000000     3.439000000     2.164000000
H    -2.353000000     2.957000000     2.744000000
C    -0.297000000     3.425000000     2.682000000
O    -0.027000000     2.774000000     3.898000000
C     0.732000000     4.174000000     2.066000000
C     2.124000000     4.223000000     2.598000000
H     2.708000000     5.135000000     2.457000000
C     2.920000000     3.014000000     2.211000000
C     3.705000000     3.048000000     1.047000000
H     3.663000000     3.948000000     0.440000000
H     2.031000000     4.156000000     3.684000000
C     0.478000000     4.812000000     0.842000000
H     1.287000000     5.278000000     0.286000000
C    -0.762000000     4.773000000     0.266000000
C    -0.950000000     5.409000000    -1.095000000
H    -0.182000000     6.143000000    -1.348000000
H    -1.914000000     5.910000000    -1.211000000
C    -0.775000000     4.356000000    -2.185000000
C     0.446000000     4.174000000    -2.885000000
H     1.303000000     4.795000000    -2.634000000
C    -1.882000000     3.560000000    -2.671000000
C    -1.662000000     2.594000000    -3.618000000
H    -2.472000000     1.931000000    -3.914000000
C    -0.444000000     2.384000000    -4.219000000
O    -0.239000000     1.277000000    -5.007000000
C     0.331000000     0.137000000    -4.339000000
C    -0.594000000    -1.092000000    -4.441000000
C    -0.038000000    -2.261000000    -3.906000000
H     0.947000000    -2.199000000    -3.449000000
C    -1.914000000    -1.121000000    -4.912000000
H    -2.341000000    -0.165000000    -5.203000000
O     1.701000000    -0.045000000    -4.721000000
H     0.310000000     0.360000000    -3.262000000
C     0.680000000     3.158000000    -3.776000000
C     2.095000000     2.932000000    -4.385000000
H     2.588000000     3.891000000    -4.556000000
H     1.971000000     2.438000000    -5.351000000
C     2.868000000     1.866000000    -3.558000000
C     3.648000000     2.340000000    -2.514000000
H     3.723000000     3.413000000    -2.353000000
C     2.715000000     0.504000000    -3.802000000
C     3.312000000    -0.365000000    -2.909000000
H     3.086000000    -1.427000000    -2.870000000
C     4.011000000     0.084000000    -1.835000000
O     4.634000000    -0.867000000    -1.132000000
C     4.174000000    -1.215000000     0.199000000
C     4.262000000    -2.679000000     0.645000000
C     3.933000000    -3.658000000    -0.296000000
H     3.758000000    -3.471000000    -1.352000000
C     4.272000000    -2.976000000     2.004000000
H     4.386000000    -2.179000000     2.733000000
O     4.977000000    -0.388000000     1.054000000
H     3.138000000    -0.855000000     0.296000000
C     4.284000000     1.455000000    -1.677000000
C     5.225000000     1.960000000    -0.628000000
H     5.371000000     2.998000000    -0.935000000
H     6.221000000     1.512000000    -0.634000000
C     4.522000000     1.956000000     0.703000000
C     4.367000000     0.778000000     1.456000000
C     3.634000000     0.772000000     2.619000000
H     3.730000000    -0.071000000     3.299000000
C     2.931000000     1.923000000     3.045000000
O     2.053000000     1.746000000     4.031000000
C     0.695000000     1.518000000     3.718000000
H     0.660000000     1.219000000     2.660000000
C     0.094000000     0.388000000     4.577000000
C    -1.315000000     0.383000000     4.769000000
H    -1.942000000     1.024000000     4.155000000
C     0.921000000    -0.561000000     5.195000000
H     1.996000000    -0.492000000     5.045000000
C     0.343000000    -1.308000000     6.215000000
O     1.066000000    -2.390000000     6.757000000
C    -1.011000000    -1.304000000     6.467000000
H    -1.410000000    -2.086000000     7.108000000
C    -1.876000000    -0.448000000     5.750000000
O    -3.226000000    -0.507000000     5.993000000
C    -4.214000000     0.187000000     5.205000000
C    -4.644000000    -0.241000000     3.940000000
H    -4.482000000    -1.278000000     3.656000000
C    -4.414000000     1.516000000     5.515000000
H    -3.985000000     1.890000000     6.441000000
C    -5.299000000     2.310000000     4.772000000
H    -5.575000000     3.316000000     5.080000000
C    -5.874000000     1.803000000     3.678000000
H    -6.475000000     2.470000000     3.066000000
C    -5.600000000     0.550000000     3.235000000
O    -6.016000000     0.027000000     2.068000000
C    -5.721000000     0.533000000     0.859000000
C    -6.334000000     0.039000000    -0.278000000
H    -7.046000000    -0.777000000    -0.178000000
C    -5.922000000     0.436000000    -1.542000000
O    -6.581000000    -0.126000000    -2.541000000
C    -6.100000000    -0.288000000    -3.849000000
C    -5.338000000    -1.331000000    -4.157000000
H    -5.053000000    -2.104000000    -3.448000000
C    -6.537000000     0.522000000    -4.901000000
H    -7.289000000     1.275000000    -4.679000000
C    -6.117000000     0.350000000    -6.209000000
H    -6.513000000     1.013000000    -6.974000000
C    -5.208000000    -0.659000000    -6.489000000
H    -4.798000000    -0.918000000    -7.462000000
C    -4.783000000    -1.470000000    -5.434000000
O    -3.831000000    -2.359000000    -5.655000000
C    -2.630000000    -2.299000000    -5.000000000
C    -2.046000000    -3.515000000    -4.584000000
H    -2.529000000    -4.486000000    -4.657000000
C    -0.764000000    -3.472000000    -3.954000000
O    -0.242000000    -4.645000000    -3.556000000
C     1.113000000    -4.827000000    -3.429000000
C     1.627000000    -5.199000000    -2.224000000
H     0.932000000    -5.240000000    -1.389000000
C     1.925000000    -4.821000000    -4.548000000
H     1.532000000    -4.600000000    -5.538000000
C     3.271000000    -5.181000000    -4.444000000
H     3.906000000    -5.054000000    -5.318000000
C     3.863000000    -5.456000000    -3.206000000
H     4.946000000    -5.531000000    -3.165000000
C     2.967000000    -5.596000000    -2.110000000
O     3.373000000    -5.932000000    -0.846000000
C     3.690000000    -4.958000000     0.103000000
C     3.653000000    -5.247000000     1.401000000
H     3.361000000    -6.248000000     1.710000000
C     3.922000000    -4.306000000     2.396000000
O     3.781000000    -4.694000000     3.679000000
C     3.653000000    -3.873000000     4.739000000
C     4.735000000    -3.909000000     5.611000000
H     5.564000000    -4.555000000     5.332000000
C     4.602000000    -3.250000000     6.871000000
H     5.397000000    -3.104000000     7.597000000
C     3.340000000    -2.831000000     7.227000000
H     3.052000000    -2.366000000     8.166000000
C     2.288000000    -2.794000000     6.303000000
C     2.442000000    -3.351000000     5.035000000
H     1.618000000    -3.502000000     4.342000000
O    -2.100000000    -9.461000000     2.501000000
H    -2.251000000    -8.931000000     1.718000000
H    -2.571000000    -9.002000000     3.196000000
O    -5.229000000    -5.717000000     2.159000000
H    -5.273000000    -6.460000000     1.558000000
H    -4.611000000    -5.113000000     1.748000000
O    -6.492000000    -6.122000000     4.492000000
H    -7.112000000    -5.400000000     4.588000000
H    -5.973000000    -5.892000000     3.722000000
O     0.597000000    -4.606000000     0.990000000
H     0.116000000    -4.894000000     1.766000000
H     0.059000000    -3.904000000     0.622000000
O    -3.079000000    -6.934000000     4.261000000
H    -3.520000000    -6.169000000     4.631000000
H    -2.504000000    -6.576000000     3.585000000
O    -4.493000000    -6.299000000    -2.698000000
H    -5.148000000    -6.905000000    -2.351000000
H    -4.860000000    -5.430000000    -2.535000000
O    -6.238000000    -2.804000000     2.386000000
H    -5.620000000    -3.323000000     1.871000000
H    -6.211000000    -1.934000000     1.986000000
O    -2.377000000    -5.903000000    -0.819000000
H    -2.632000000    -5.536000000     0.027000000
H    -3.136000000    -5.756000000    -1.383000000
O    -5.502000000    -4.138000000    -1.632000000
H    -6.352000000    -3.698000000    -1.622000000
H    -5.154000000    -4.007000000    -0.750000000
O    -0.258000000    -8.515000000    -0.640000000
H    -0.386000000    -7.566000000    -0.638000000
H    -0.827000000    -8.831000000    -1.342000000
O    -0.996000000    -4.619000000     6.075000000
H    -1.884000000    -4.264000000     6.067000000
H    -0.522000000    -4.066000000     6.696000000
O    -7.986000000    -3.221000000    -1.005000000
H    -7.970000000    -3.190000000    -0.048000000
H    -8.387000000    -2.392000000    -1.265000000
O    -0.972000000    -5.379000000     3.111000000
H    -0.863000000    -5.124000000     4.027000000
H    -1.691000000    -4.832000000     2.794000000
O    -3.246000000    -8.919000000    -0.334000000
H    -2.947000000    -8.034000000    -0.542000000
H    -4.169000000    -8.813000000    -0.103000000
O    -7.151000000    -6.976000000    -1.298000000
H    -7.948000000    -7.362000000    -1.660000000
H    -7.284000000    -6.032000000    -1.377000000
O    -8.951000000    -5.040000000     1.496000000
H    -8.169000000    -5.417000000     1.898000000
H    -8.969000000    -4.136000000     1.810000000
O    -3.497000000    -4.255000000     5.306000000
H    -3.407000000    -4.141000000     4.360000000
H    -3.985000000    -3.484000000     5.595000000
O    -7.936000000    -1.973000000     5.157000000
H    -7.202000000    -1.904000000     4.548000000
H    -8.706000000    -2.062000000     4.595000000
O     1.003000000    -7.346000000     2.235000000
H     1.061000000    -6.476000000     1.839000000
H     0.592000000    -7.196000000     3.086000000
