201
-1251.88558
C    -3.317000000     0.758000000     4.227000000
H    -2.894000000     0.106000000     4.987000000
C    -3.654000000     0.298000000     2.905000000
C    -4.095000000     1.284000000     2.026000000
H    -4.309000000     1.047000000     0.987000000
C    -3.345000000    -1.141000000     2.469000000
O    -3.049000000    -1.974000000     3.607000000
H    -2.458000000    -0.916000000     1.858000000
O    -4.404000000    -1.653000000     1.671000000
C    -3.977000000    -2.263000000     0.496000000
C    -4.063000000    -1.549000000    -0.679000000
H    -4.406000000    -0.519000000    -0.720000000
C    -3.641000000    -2.097000000    -1.859000000
O    -3.715000000    -1.275000000    -3.002000000
C    -3.140000000    -3.398000000    -1.995000000
C    -2.467000000    -3.859000000    -3.299000000
H    -2.488000000    -4.950000000    -3.326000000
C    -1.089000000    -3.306000000    -3.574000000
C     0.008000000    -3.975000000    -3.048000000
H    -0.184000000    -4.897000000    -2.506000000
H    -3.202000000    -3.476000000    -4.010000000
C    -2.925000000    -4.086000000    -0.757000000
H    -2.456000000    -5.066000000    -0.788000000
C    -3.407000000    -3.531000000     0.475000000
C    -3.183000000    -4.298000000     1.760000000
H    -3.299000000    -5.379000000     1.665000000
H    -3.955000000    -4.045000000     2.490000000
C    -1.947000000    -3.831000000     2.442000000
C    -0.756000000    -4.425000000     2.119000000
H    -0.770000000    -5.124000000     1.286000000
C    -2.015000000    -2.814000000     3.406000000
C    -0.786000000    -2.370000000     3.928000000
H    -0.764000000    -1.525000000     4.611000000
C     0.452000000    -2.933000000     3.514000000
O     1.566000000    -2.277000000     4.018000000
C     2.221000000    -1.496000000     3.054000000
C     2.702000000    -0.093000000     3.609000000
C     3.863000000     0.512000000     3.211000000
H     4.608000000     0.024000000     2.588000000
C     1.910000000     0.637000000     4.513000000
H     1.054000000     0.112000000     4.929000000
O     3.307000000    -2.199000000     2.458000000
H     1.514000000    -1.321000000     2.230000000
C     0.456000000    -3.978000000     2.596000000
C     1.727000000    -4.723000000     2.147000000
H     1.625000000    -5.777000000     1.881000000
H     2.461000000    -4.782000000     2.954000000
C     2.352000000    -3.944000000     0.999000000
C     2.163000000    -4.352000000    -0.282000000
H     1.490000000    -5.197000000    -0.404000000
C     3.156000000    -2.785000000     1.221000000
C     3.817000000    -2.251000000     0.157000000
H     4.538000000    -1.469000000     0.381000000
C     3.621000000    -2.644000000    -1.119000000
O     4.194000000    -1.943000000    -2.137000000
C     3.324000000    -0.985000000    -2.830000000
C     4.095000000     0.289000000    -2.943000000
C     5.140000000     0.620000000    -2.108000000
H     5.542000000    -0.019000000    -1.326000000
C     3.544000000     1.194000000    -3.871000000
H     2.731000000     0.862000000    -4.512000000
O     2.773000000    -1.621000000    -4.022000000
H     2.388000000    -0.726000000    -2.311000000
C     2.789000000    -3.735000000    -1.366000000
C     2.572000000    -4.193000000    -2.773000000
H     2.335000000    -5.255000000    -2.862000000
H     3.523000000    -4.067000000    -3.296000000
C     1.307000000    -3.474000000    -3.301000000
C     1.497000000    -2.212000000    -3.901000000
C     0.358000000    -1.486000000    -4.349000000
H     0.497000000    -0.475000000    -4.725000000
C    -0.903000000    -2.065000000    -4.208000000
O    -1.883000000    -1.187000000    -4.553000000
C    -2.519000000    -0.545000000    -3.423000000
H    -1.839000000    -0.542000000    -2.558000000
C    -2.998000000     0.945000000    -3.746000000
C    -4.193000000     1.525000000    -3.271000000
H    -4.938000000     1.000000000    -2.678000000
C    -2.034000000     1.764000000    -4.334000000
H    -1.172000000     1.253000000    -4.756000000
C    -2.216000000     3.125000000    -4.604000000
O    -1.278000000     3.963000000    -5.140000000
C    -3.479000000     3.666000000    -4.216000000
H    -3.697000000     4.715000000    -4.400000000
C    -4.440000000     2.896000000    -3.519000000
O    -5.602000000     3.466000000    -3.141000000
C    -6.094000000     3.234000000    -1.854000000
C    -5.263000000     3.639000000    -0.821000000
H    -4.269000000     4.044000000    -0.995000000
C    -7.304000000     2.602000000    -1.607000000
H    -8.025000000     2.300000000    -2.362000000
C    -7.691000000     2.295000000    -0.271000000
H    -8.676000000     1.858000000    -0.126000000
C    -6.772000000     2.658000000     0.744000000
H    -7.108000000     2.319000000     1.721000000
C    -5.588000000     3.238000000     0.466000000
O    -4.731000000     3.534000000     1.483000000
C    -4.331000000     2.581000000     2.392000000
C    -3.997000000     3.015000000     3.667000000
H    -4.150000000     4.061000000     3.920000000
C    -3.552000000     2.091000000     4.567000000
O    -3.231000000     2.556000000     5.863000000
C    -2.076000000     2.210000000     6.469000000
C    -0.897000000     2.592000000     5.846000000
H    -0.967000000     3.157000000     4.920000000
C    -2.062000000     1.501000000     7.660000000
H    -2.950000000     1.232000000     8.226000000
C    -0.857000000     1.408000000     8.354000000
H    -0.799000000     0.938000000     9.332000000
C     0.370000000     1.741000000     7.735000000
H     1.279000000     1.355000000     8.190000000
C     0.261000000     2.293000000     6.420000000
O     1.460000000     2.576000000     5.857000000
C     2.193000000     1.896000000     4.950000000
C     3.320000000     2.483000000     4.385000000
H     3.572000000     3.493000000     4.702000000
C     4.175000000     1.838000000     3.558000000
O     5.316000000     2.550000000     3.214000000
C     6.236000000     2.120000000     2.297000000
C     6.090000000     2.585000000     0.960000000
H     5.317000000     3.294000000     0.675000000
C     7.170000000     1.101000000     2.536000000
H     7.372000000     0.698000000     3.525000000
C     7.972000000     0.677000000     1.491000000
H     8.778000000    -0.012000000     1.727000000
C     7.799000000     1.024000000     0.163000000
H     8.544000000     0.755000000    -0.582000000
C     6.788000000     1.907000000    -0.060000000
O     6.634000000     2.380000000    -1.379000000
C     5.733000000     1.854000000    -2.321000000
C     5.136000000     2.806000000    -3.212000000
H     5.460000000     3.843000000    -3.236000000
C     4.120000000     2.469000000    -4.002000000
O     3.485000000     3.409000000    -4.841000000
C     2.305000000     3.189000000    -5.519000000
C     2.326000000     2.524000000    -6.745000000
H     3.229000000     2.213000000    -7.264000000
C     1.106000000     2.239000000    -7.345000000
H     1.139000000     1.780000000    -8.329000000
C    -0.111000000     2.644000000    -6.794000000
H    -1.077000000     2.346000000    -7.194000000
C    -0.097000000     3.454000000    -5.639000000
C     1.117000000     3.715000000    -4.940000000
H     1.075000000     4.186000000    -3.961000000
O    -2.844000000     8.117000000    -5.496000000
H    -3.408000000     7.944000000    -4.743000000
H    -1.965000000     7.883000000    -5.197000000
O     0.339000000     3.296000000     2.428000000
H    -0.193000000     3.988000000     2.036000000
H    -0.019000000     2.485000000     2.066000000
O     0.930000000     5.570000000     4.177000000
H     1.314000000     4.827000000     3.712000000
H    -0.013000000     5.408000000     4.150000000
O    -6.573000000     6.300000000    -0.790000000
H    -6.974000000     6.122000000     0.061000000
H    -5.641000000     6.124000000    -0.657000000
O    -0.748000000     6.526000000    -4.208000000
H    -0.486000000     5.800000000    -4.774000000
H    -0.478000000     6.256000000    -3.330000000
O     2.545000000     4.230000000     0.562000000
H     2.020000000     3.646000000     1.110000000
H     3.240000000     4.541000000     1.141000000
O    -1.567000000     5.402000000     1.993000000
H    -1.673000000     5.348000000     1.044000000
H    -2.383000000     5.794000000     2.304000000
O     1.398000000    10.029000000     1.592000000
H     1.126000000    10.671000000     0.937000000
H     0.788000000     9.300000000     1.480000000
O     1.240000000     6.892000000     0.240000000
H     1.324000000     6.025000000     0.638000000
H     0.360000000     7.181000000     0.480000000
O     2.513000000     5.611000000    -2.208000000
H     1.588000000     5.610000000    -1.962000000
H     2.971000000     5.318000000    -1.420000000
O     3.731000000     7.626000000    -0.936000000
H     3.528000000     7.212000000    -1.775000000
H     2.926000000     7.540000000    -0.425000000
O    -1.759000000     7.648000000    -1.663000000
H    -2.003000000     7.505000000    -2.578000000
H    -1.435000000     6.797000000    -1.366000000
O    -5.119000000     7.978000000    -3.343000000
H    -5.820000000     8.075000000    -3.988000000
H    -5.378000000     7.220000000    -2.819000000
O    -4.173000000     7.409000000     2.449000000
H    -3.824000000     8.299000000     2.492000000
H    -4.371000000     7.274000000     1.522000000
O    -4.306000000     9.778000000    -1.195000000
H    -3.617000000    10.405000000    -1.415000000
H    -4.311000000     9.162000000    -1.927000000
O     0.983000000     9.491000000    -1.987000000
H     0.573000000     8.679000000    -1.690000000
H     0.878000000    10.095000000    -1.253000000
O     1.468000000     7.197000000    -5.744000000
H     0.747000000     7.199000000    -5.115000000
H     1.189000000     6.587000000    -6.427000000
O    -4.013000000     6.472000000    -0.103000000
H    -3.325000000     5.852000000    -0.346000000
H    -3.714000000     7.310000000    -0.456000000
O    -1.118000000     8.824000000     0.998000000
H    -1.726000000     9.254000000     1.600000000
H    -1.572000000     8.830000000     0.155000000
