201
-1236.32439
C    -4.185000000    -1.073000000     3.045000000
H    -3.855000000    -2.093000000     3.225000000
C    -4.238000000    -0.494000000     1.797000000
C    -4.541000000     0.864000000     1.682000000
H    -4.516000000     1.290000000     0.682000000
C    -3.981000000    -1.299000000     0.532000000
O    -4.136000000    -2.716000000     0.773000000
H    -2.940000000    -1.100000000     0.238000000
O    -4.920000000    -0.893000000    -0.485000000
C    -4.295000000    -0.831000000    -1.778000000
C    -4.062000000     0.371000000    -2.355000000
H    -4.424000000     1.254000000    -1.834000000
C    -3.320000000     0.519000000    -3.448000000
O    -3.003000000     1.847000000    -3.795000000
C    -2.797000000    -0.621000000    -4.080000000
C    -1.941000000    -0.490000000    -5.337000000
H    -2.012000000    -1.407000000    -5.927000000
C    -0.505000000    -0.300000000    -5.066000000
C     0.307000000    -1.417000000    -4.907000000
H    -0.045000000    -2.393000000    -5.233000000
H    -2.291000000     0.301000000    -6.003000000
C    -2.980000000    -1.839000000    -3.452000000
H    -2.477000000    -2.733000000    -3.810000000
C    -3.815000000    -1.977000000    -2.386000000
C    -4.117000000    -3.368000000    -1.903000000
H    -4.180000000    -4.004000000    -2.789000000
H    -5.081000000    -3.538000000    -1.419000000
C    -3.009000000    -3.851000000    -0.909000000
C    -1.959000000    -4.623000000    -1.264000000
H    -1.788000000    -4.816000000    -2.320000000
C    -3.094000000    -3.486000000     0.407000000
C    -2.164000000    -3.832000000     1.404000000
H    -2.255000000    -3.292000000     2.343000000
C    -1.079000000    -4.640000000     1.029000000
O    -0.050000000    -4.865000000     1.992000000
C     1.051000000    -4.007000000     1.995000000
C     1.474000000    -3.499000000     3.358000000
C     2.766000000    -2.997000000     3.424000000
H     3.474000000    -3.175000000     2.619000000
C     0.629000000    -3.396000000     4.413000000
H    -0.405000000    -3.649000000     4.193000000
O     2.180000000    -4.504000000     1.166000000
H     0.678000000    -3.076000000     1.542000000
C    -0.951000000    -4.982000000    -0.322000000
C     0.324000000    -5.676000000    -0.790000000
H     0.129000000    -6.224000000    -1.714000000
H     0.713000000    -6.330000000    -0.008000000
C     1.304000000    -4.528000000    -1.122000000
C     1.341000000    -4.053000000    -2.428000000
H     0.774000000    -4.510000000    -3.235000000
C     2.196000000    -4.071000000    -0.119000000
C     3.143000000    -3.091000000    -0.466000000
H     3.793000000    -2.768000000     0.343000000
C     3.184000000    -2.574000000    -1.772000000
O     4.070000000    -1.579000000    -2.021000000
C     3.581000000    -0.296000000    -2.160000000
C     4.566000000     0.706000000    -1.501000000
C     5.275000000     0.260000000    -0.379000000
H     5.288000000    -0.793000000    -0.109000000
C     4.477000000     2.037000000    -1.757000000
H     3.958000000     2.366000000    -2.654000000
O     3.378000000     0.088000000    -3.557000000
H     2.613000000    -0.155000000    -1.656000000
C     2.286000000    -3.064000000    -2.733000000
C     2.407000000    -2.577000000    -4.166000000
H     2.253000000    -3.287000000    -4.981000000
H     3.470000000    -2.342000000    -4.250000000
C     1.598000000    -1.290000000    -4.346000000
C     2.052000000    -0.008000000    -3.995000000
C     1.311000000     1.128000000    -4.243000000
H     1.671000000     2.150000000    -4.147000000
C     0.017000000     0.949000000    -4.709000000
O    -0.828000000     2.081000000    -4.686000000
C    -1.666000000     2.294000000    -3.512000000
H    -1.304000000     1.666000000    -2.685000000
C    -1.703000000     3.697000000    -2.918000000
C    -2.895000000     4.286000000    -2.417000000
H    -3.822000000     3.817000000    -2.734000000
C    -0.486000000     4.377000000    -2.690000000
H     0.432000000     3.926000000    -3.060000000
C    -0.491000000     5.501000000    -1.834000000
O     0.693000000     6.147000000    -1.573000000
C    -1.615000000     5.929000000    -1.245000000
H    -1.634000000     6.772000000    -0.558000000
C    -2.864000000     5.391000000    -1.543000000
O    -4.050000000     5.872000000    -1.008000000
C    -4.979000000     5.091000000    -0.247000000
C    -4.480000000     4.530000000     0.948000000
H    -3.438000000     4.612000000     1.246000000
C    -6.286000000     4.958000000    -0.612000000
H    -6.588000000     5.401000000    -1.557000000
C    -7.118000000     4.063000000     0.036000000
H    -8.139000000     3.896000000    -0.296000000
C    -6.644000000     3.369000000     1.110000000
H    -7.256000000     2.574000000     1.528000000
C    -5.331000000     3.639000000     1.635000000
O    -4.763000000     3.000000000     2.710000000
C    -4.695000000     1.627000000     2.851000000
C    -4.674000000     1.039000000     4.076000000
H    -4.733000000     1.629000000     4.986000000
C    -4.320000000    -0.309000000     4.148000000
O    -4.106000000    -0.923000000     5.360000000
C    -2.912000000    -0.718000000     6.093000000
C    -1.988000000    -1.825000000     6.077000000
H    -2.280000000    -2.729000000     5.548000000
C    -2.618000000     0.439000000     6.781000000
H    -3.256000000     1.318000000     6.745000000
C    -1.308000000     0.561000000     7.357000000
H    -1.073000000     1.514000000     7.824000000
C    -0.503000000    -0.518000000     7.384000000
H     0.437000000    -0.456000000     7.926000000
C    -0.795000000    -1.747000000     6.812000000
O     0.199000000    -2.700000000     6.702000000
C     1.061000000    -2.894000000     5.656000000
C     2.374000000    -2.463000000     5.752000000
H     2.633000000    -1.860000000     6.619000000
C     3.185000000    -2.431000000     4.628000000
O     4.530000000    -1.898000000     4.715000000
C     5.400000000    -1.772000000     3.634000000
C     5.671000000    -0.516000000     3.006000000
H     5.176000000     0.401000000     3.318000000
C     6.082000000    -2.929000000     3.154000000
H     5.923000000    -3.951000000     3.488000000
C     7.176000000    -2.857000000     2.243000000
H     7.816000000    -3.690000000     1.962000000
C     7.374000000    -1.586000000     1.652000000
H     8.208000000    -1.447000000     0.969000000
C     6.610000000    -0.484000000     1.969000000
O     6.884000000     0.689000000     1.330000000
C     6.089000000     1.160000000     0.285000000
C     6.013000000     2.507000000    -0.009000000
H     6.562000000     3.200000000     0.624000000
C     5.273000000     2.982000000    -1.067000000
O     5.274000000     4.253000000    -1.421000000
C     4.173000000     4.874000000    -2.032000000
C     4.412000000     5.366000000    -3.272000000
H     5.353000000     5.193000000    -3.788000000
C     3.393000000     6.047000000    -4.018000000
H     3.675000000     6.334000000    -5.028000000
C     2.207000000     6.424000000    -3.426000000
H     1.422000000     6.890000000    -4.017000000
C     1.958000000     5.869000000    -2.165000000
C     2.896000000     5.109000000    -1.419000000
H     2.704000000     4.754000000    -0.409000000
O    -1.180000000     8.508000000     5.576000000
H    -0.518000000     8.002000000     5.106000000
H    -0.745000000     8.779000000     6.384000000
O    -2.735000000     4.929000000     3.739000000
H    -3.147000000     4.094000000     3.519000000
H    -2.088000000     5.067000000     3.048000000
O     3.648000000     4.752000000     6.283000000
H     3.017000000     5.300000000     6.751000000
H     3.128000000     4.023000000     5.946000000
O     4.279000000     7.131000000     4.601000000
H     4.199000000     6.244000000     4.952000000
H     4.085000000     7.039000000     3.669000000
O     0.750000000     0.727000000     4.176000000
H     0.362000000     0.712000000     3.301000000
H     0.026000000     0.515000000     4.764000000
O    -3.310000000     7.930000000     1.053000000
H    -2.463000000     7.686000000     1.425000000
H    -3.506000000     7.234000000     0.426000000
O     1.714000000     3.138000000     4.781000000
H     1.470000000     2.266000000     4.472000000
H     1.640000000     3.697000000     4.007000000
O     1.484000000     2.253000000     7.522000000
H     2.254000000     1.772000000     7.219000000
H     1.206000000     2.763000000     6.761000000
O    -1.746000000     0.822000000     3.068000000
H    -2.680000000     0.966000000     3.219000000
H    -1.593000000     1.148000000     2.182000000
O     0.327000000     6.465000000     4.402000000
H     0.401000000     5.686000000     3.851000000
H     0.959000000     6.320000000     5.107000000
O    -5.290000000     6.097000000     3.500000000
H    -4.447000000     5.673000000     3.658000000
H    -5.345000000     6.778000000     4.170000000
O    -2.550000000     5.954000000     6.266000000
H    -2.529000000     5.357000000     5.518000000
H    -2.590000000     6.827000000     5.875000000
O     5.314000000     6.316000000     1.077000000
H     5.391000000     6.590000000     0.163000000
H     4.715000000     6.952000000     1.468000000
O     3.095000000     0.623000000     5.940000000
H     2.146000000     0.608000000     5.820000000
H     3.438000000     0.920000000     5.097000000
O     2.038000000     8.887000000     0.511000000
H     2.280000000     8.048000000     0.901000000
H     1.720000000     9.411000000     1.246000000
O    -0.581000000     9.287000000    -1.329000000
H    -0.372000000     8.795000000    -0.535000000
H     0.172000000     9.145000000    -1.903000000
O    -0.622000000     7.208000000     1.628000000
H    -0.377000000     7.576000000     2.477000000
H    -0.707000000     6.268000000     1.790000000
O     4.490000000     4.208000000     2.584000000
H     4.822000000     4.827000000     1.934000000
H     3.560000000     4.420000000     2.664000000
O     2.696000000     6.991000000     2.148000000
H     2.209000000     6.176000000     2.029000000
H     2.137000000     7.524000000     2.713000000
