201
-1216.17598
C    -4.144000000    -0.301000000     2.239000000
H    -3.529000000    -1.196000000     2.285000000
C    -4.685000000     0.075000000     1.068000000
C    -5.513000000     1.193000000     1.004000000
H    -5.941000000     1.658000000     0.119000000
C    -4.372000000    -0.673000000    -0.288000000
O    -4.673000000    -2.101000000    -0.256000000
H    -3.284000000    -0.672000000    -0.449000000
O    -5.005000000    -0.014000000    -1.416000000
C    -4.057000000     0.245000000    -2.408000000
C    -3.568000000     1.538000000    -2.449000000
H    -4.007000000     2.220000000    -1.725000000
C    -2.615000000     1.859000000    -3.449000000
O    -1.959000000     3.033000000    -3.301000000
C    -2.068000000     0.854000000    -4.239000000
C    -1.026000000     1.174000000    -5.311000000
H    -1.147000000     0.531000000    -6.186000000
C     0.380000000     0.976000000    -4.785000000
C     1.007000000    -0.287000000    -4.843000000
H     0.495000000    -1.130000000    -5.300000000
H    -1.052000000     2.227000000    -5.599000000
C    -2.497000000    -0.483000000    -4.147000000
H    -2.092000000    -1.361000000    -4.644000000
C    -3.526000000    -0.795000000    -3.220000000
C    -4.040000000    -2.177000000    -3.197000000
H    -3.751000000    -2.659000000    -4.133000000
H    -5.128000000    -2.197000000    -3.278000000
C    -3.418000000    -3.085000000    -2.077000000
C    -2.337000000    -3.876000000    -2.551000000
H    -2.154000000    -4.020000000    -3.613000000
C    -3.708000000    -3.003000000    -0.677000000
C    -2.901000000    -3.691000000     0.198000000
H    -2.964000000    -3.529000000     1.271000000
C    -1.776000000    -4.355000000    -0.259000000
O    -0.884000000    -4.831000000     0.741000000
C     0.360000000    -4.138000000     0.972000000
C     0.631000000    -4.077000000     2.458000000
C     1.977000000    -4.103000000     2.913000000
H     2.820000000    -4.026000000     2.230000000
C    -0.404000000    -3.880000000     3.417000000
H    -1.424000000    -3.768000000     3.059000000
O     1.360000000    -4.803000000     0.235000000
H     0.179000000    -3.144000000     0.537000000
C    -1.508000000    -4.471000000    -1.623000000
C    -0.238000000    -5.243000000    -1.997000000
H    -0.431000000    -5.729000000    -2.956000000
H    -0.042000000    -5.994000000    -1.228000000
C     1.001000000    -4.370000000    -2.056000000
C     1.267000000    -3.538000000    -3.173000000
H     0.568000000    -3.509000000    -4.005000000
C     1.777000000    -4.261000000    -0.914000000
C     2.956000000    -3.540000000    -0.903000000
H     3.657000000    -3.394000000    -0.086000000
C     3.281000000    -2.785000000    -2.053000000
O     4.327000000    -1.873000000    -1.988000000
C     3.901000000    -0.470000000    -1.806000000
C     4.592000000     0.212000000    -0.646000000
C     4.816000000    -0.417000000     0.624000000
H     4.349000000    -1.374000000     0.846000000
C     5.146000000     1.504000000    -0.814000000
H     5.027000000     2.011000000    -1.769000000
O     4.164000000     0.161000000    -3.089000000
H     2.827000000    -0.362000000    -1.594000000
C     2.434000000    -2.769000000    -3.163000000
C     2.819000000    -1.922000000    -4.403000000
H     2.435000000    -2.440000000    -5.285000000
H     3.892000000    -2.027000000    -4.578000000
C     2.277000000    -0.534000000    -4.414000000
C     3.005000000     0.444000000    -3.793000000
C     2.381000000     1.676000000    -3.638000000
H     2.950000000     2.368000000    -3.022000000
C     1.100000000     1.950000000    -4.069000000
O     0.412000000     3.104000000    -3.673000000
C    -0.652000000     2.951000000    -2.711000000
H    -0.643000000     1.993000000    -2.171000000
C    -0.545000000     4.016000000    -1.629000000
C    -1.687000000     4.483000000    -0.898000000
H    -2.683000000     4.123000000    -1.145000000
C     0.664000000     4.484000000    -1.262000000
H     1.547000000     4.020000000    -1.695000000
C     0.822000000     5.500000000    -0.341000000
O     2.006000000     6.212000000    -0.146000000
C    -0.281000000     5.964000000     0.394000000
H    -0.153000000     6.735000000     1.150000000
C    -1.539000000     5.457000000     0.132000000
O    -2.582000000     5.759000000     0.921000000
C    -3.864000000     5.483000000     0.713000000
C    -4.366000000     4.381000000     1.434000000
H    -3.740000000     3.840000000     2.139000000
C    -4.621000000     6.224000000    -0.137000000
H    -4.239000000     7.078000000    -0.692000000
C    -5.976000000     5.972000000    -0.154000000
H    -6.709000000     6.630000000    -0.614000000
C    -6.490000000     4.998000000     0.622000000
H    -7.564000000     4.840000000     0.685000000
C    -5.705000000     4.085000000     1.333000000
O    -6.287000000     3.162000000     2.102000000
C    -5.694000000     1.976000000     2.148000000
C    -5.101000000     1.578000000     3.352000000
H    -5.108000000     2.202000000     4.241000000
C    -4.237000000     0.498000000     3.397000000
O    -3.604000000     0.129000000     4.545000000
C    -3.560000000    -1.189000000     4.887000000
C    -2.350000000    -1.811000000     5.168000000
H    -1.419000000    -1.367000000     4.825000000
C    -4.744000000    -1.927000000     5.100000000
H    -5.672000000    -1.363000000     5.067000000
C    -4.716000000    -3.250000000     5.497000000
H    -5.689000000    -3.671000000     5.734000000
C    -3.459000000    -3.847000000     5.576000000
H    -3.353000000    -4.856000000     5.967000000
C    -2.288000000    -3.127000000     5.509000000
O    -1.071000000    -3.783000000     5.771000000
C    -0.121000000    -4.006000000     4.772000000
C     1.185000000    -4.193000000     5.128000000
H     1.433000000    -4.174000000     6.186000000
C     2.265000000    -4.163000000     4.222000000
O     3.531000000    -4.227000000     4.784000000
C     4.662000000    -3.712000000     4.168000000
C     4.651000000    -2.360000000     3.897000000
H     3.822000000    -1.775000000     4.286000000
C     5.620000000    -4.536000000     3.557000000
H     5.568000000    -5.603000000     3.757000000
C     6.631000000    -3.959000000     2.828000000
H     7.269000000    -4.617000000     2.244000000
C     6.628000000    -2.602000000     2.552000000
H     7.272000000    -2.093000000     1.841000000
C     5.618000000    -1.783000000     3.142000000
O     5.617000000    -0.444000000     2.822000000
C     5.511000000     0.174000000     1.594000000
C     5.934000000     1.480000000     1.434000000
H     6.305000000     1.988000000     2.321000000
C     5.670000000     2.212000000     0.276000000
O     6.134000000     3.511000000     0.081000000
C     5.344000000     4.544000000    -0.488000000
C     5.950000000     5.568000000    -1.223000000
H     7.022000000     5.516000000    -1.395000000
C     5.306000000     6.641000000    -1.729000000
H     5.829000000     7.390000000    -2.318000000
C     3.929000000     6.769000000    -1.375000000
H     3.337000000     7.633000000    -1.665000000
C     3.270000000     5.848000000    -0.596000000
C     3.952000000     4.744000000    -0.154000000
H     3.539000000     4.004000000     0.528000000
O     0.362000000     3.480000000     8.694000000
H     1.081000000     4.065000000     8.930000000
H     0.566000000     3.197000000     7.802000000
O     0.951000000     4.619000000     5.523000000
H     0.427000000     5.026000000     4.834000000
H     1.002000000     3.696000000     5.272000000
O    -5.457000000     1.345000000     8.129000000
H    -4.904000000     1.681000000     7.424000000
H    -5.118000000     1.765000000     8.920000000
O    -1.187000000     5.913000000     7.680000000
H    -1.818000000     5.193000000     7.672000000
H    -0.543000000     5.676000000     7.013000000
O    -2.853000000     4.063000000     6.124000000
H    -3.553000000     4.437000000     5.589000000
H    -2.193000000     3.780000000     5.492000000
O    -2.681000000    -0.020000000     8.317000000
H    -2.703000000    -0.958000000     8.507000000
H    -1.833000000     0.118000000     7.894000000
O     2.813000000     0.921000000     5.974000000
H     2.000000000     1.365000000     5.734000000
H     2.539000000     0.226000000     6.572000000
O    -2.084000000     7.185000000     4.838000000
H    -2.923000000     7.373000000     4.416000000
H    -1.687000000     6.509000000     4.290000000
O    -4.986000000     6.111000000     7.363000000
H    -4.589000000     5.785000000     8.170000000
H    -4.744000000     5.466000000     6.699000000
O    -3.640000000     4.824000000     9.278000000
H    -3.144000000     4.007000000     9.224000000
H    -3.638000000     5.044000000    10.209000000
O    -0.205000000     0.506000000     7.533000000
H    -0.184000000     1.077000000     6.765000000
H     0.123000000    -0.335000000     7.215000000
O     4.408000000     2.675000000     4.821000000
H     3.777000000     2.008000000     5.092000000
H     5.252000000     2.224000000     4.827000000
O    -2.878000000     2.590000000     8.357000000
H    -2.813000000     2.878000000     7.447000000
H    -2.798000000     1.637000000     8.313000000
O     4.441000000     5.142000000     4.280000000
H     4.982000000     5.096000000     3.492000000
H     4.005000000     4.291000000     4.321000000
O    -4.847000000     5.226000000     4.796000000
H    -5.476000000     4.949000000     4.130000000
H    -4.934000000     6.179000000     4.826000000
O     2.304000000     6.429000000     7.577000000
H     2.149000000     5.883000000     6.806000000
H     2.128000000     7.321000000     7.277000000
O     3.372000000     3.936000000     8.876000000
H     3.313000000     4.829000000     8.537000000
H     3.915000000     3.473000000     8.237000000
O    -0.646000000     5.344000000     3.486000000
H    -1.077000000     4.506000000     3.655000000
H    -0.510000000     5.356000000     2.538000000
O     0.818000000     1.001000000    10.630000000
H     0.073000000     0.826000000    11.205000000
H     0.458000000     1.550000000     9.933000000
