201
-1232.11908
C    -4.340000000    -0.649000000     2.443000000
H    -4.053000000    -1.697000000     2.443000000
C    -4.482000000     0.097000000     1.243000000
C    -4.772000000     1.505000000     1.330000000
H    -4.946000000     2.151000000     0.473000000
C    -4.170000000    -0.597000000    -0.114000000
O    -4.455000000    -1.998000000    -0.147000000
H    -3.105000000    -0.358000000    -0.253000000
O    -4.860000000    -0.049000000    -1.234000000
C    -4.128000000     0.232000000    -2.384000000
C    -3.665000000     1.532000000    -2.537000000
H    -3.957000000     2.308000000    -1.834000000
C    -2.784000000     1.808000000    -3.502000000
O    -2.229000000     3.069000000    -3.537000000
C    -2.344000000     0.902000000    -4.407000000
C    -1.287000000     1.220000000    -5.457000000
H    -1.376000000     0.428000000    -6.203000000
C     0.120000000     0.992000000    -4.866000000
C     0.806000000    -0.213000000    -5.069000000
H     0.290000000    -0.984000000    -5.635000000
H    -1.562000000     2.165000000    -5.928000000
C    -2.767000000    -0.425000000    -4.314000000
H    -2.448000000    -1.198000000    -5.007000000
C    -3.620000000    -0.766000000    -3.287000000
C    -4.065000000    -2.275000000    -3.085000000
H    -4.082000000    -2.794000000    -4.045000000
H    -5.121000000    -2.316000000    -2.810000000
C    -3.168000000    -2.880000000    -1.982000000
C    -2.148000000    -3.740000000    -2.360000000
H    -1.871000000    -3.880000000    -3.402000000
C    -3.434000000    -2.777000000    -0.605000000
C    -2.636000000    -3.403000000     0.323000000
H    -2.787000000    -3.277000000     1.392000000
C    -1.536000000    -4.249000000    -0.092000000
O    -0.693000000    -4.892000000     0.840000000
C     0.581000000    -4.213000000     1.037000000
C     1.023000000    -4.072000000     2.465000000
C     2.304000000    -4.399000000     2.975000000
H     3.072000000    -4.832000000     2.339000000
C    -0.006000000    -3.721000000     3.438000000
H    -1.038000000    -3.583000000     3.125000000
O     1.685000000    -4.826000000     0.236000000
H     0.410000000    -3.174000000     0.717000000
C    -1.349000000    -4.481000000    -1.448000000
C    -0.191000000    -5.264000000    -1.961000000
H    -0.565000000    -5.591000000    -2.934000000
H    -0.075000000    -6.126000000    -1.301000000
C     1.104000000    -4.456000000    -2.083000000
C     1.371000000    -3.791000000    -3.274000000
H     0.591000000    -3.706000000    -4.027000000
C     2.004000000    -4.309000000    -1.005000000
C     3.060000000    -3.515000000    -1.187000000
H     3.808000000    -3.366000000    -0.413000000
C     3.311000000    -2.777000000    -2.353000000
O     4.268000000    -1.825000000    -2.381000000
C     3.886000000    -0.487000000    -2.015000000
C     4.627000000     0.123000000    -0.801000000
C     5.214000000    -0.638000000     0.174000000
H     5.358000000    -1.699000000    -0.017000000
C     4.368000000     1.440000000    -0.469000000
H     3.732000000     2.044000000    -1.111000000
O     3.848000000     0.365000000    -3.184000000
H     2.874000000    -0.455000000    -1.585000000
C     2.447000000    -2.862000000    -3.412000000
C     2.593000000    -1.974000000    -4.641000000
H     1.975000000    -2.400000000    -5.434000000
H     3.596000000    -2.043000000    -5.067000000
C     2.034000000    -0.487000000    -4.508000000
C     2.632000000     0.567000000    -3.797000000
C     2.021000000     1.802000000    -3.706000000
H     2.489000000     2.611000000    -3.151000000
C     0.760000000     2.014000000    -4.108000000
O     0.135000000     3.209000000    -3.894000000
C    -0.919000000     3.293000000    -2.917000000
H    -0.811000000     2.429000000    -2.246000000
C    -0.775000000     4.499000000    -2.026000000
C    -1.907000000     5.014000000    -1.336000000
H    -2.903000000     4.664000000    -1.594000000
C     0.448000000     5.078000000    -1.757000000
H     1.362000000     4.733000000    -2.232000000
C     0.582000000     6.219000000    -0.921000000
O     1.817000000     6.780000000    -0.733000000
C    -0.588000000     6.804000000    -0.374000000
H    -0.559000000     7.621000000     0.343000000
C    -1.847000000     6.210000000    -0.578000000
O    -2.894000000     6.794000000     0.057000000
C    -4.056000000     6.053000000     0.287000000
C    -3.980000000     4.956000000     1.151000000
H    -2.994000000     4.750000000     1.561000000
C    -5.290000000     6.629000000    -0.065000000
H    -5.296000000     7.558000000    -0.629000000
C    -6.418000000     6.092000000     0.453000000
H    -7.354000000     6.573000000     0.180000000
C    -6.319000000     5.014000000     1.364000000
H    -7.282000000     4.688000000     1.748000000
C    -5.101000000     4.442000000     1.679000000
O    -5.105000000     3.497000000     2.665000000
C    -4.917000000     2.201000000     2.538000000
C    -4.935000000     1.400000000     3.699000000
H    -5.165000000     1.932000000     4.619000000
C    -4.578000000     0.022000000     3.662000000
O    -4.579000000    -0.605000000     4.912000000
C    -3.906000000    -1.840000000     5.209000000
C    -2.518000000    -1.914000000     5.359000000
H    -1.970000000    -0.981000000     5.252000000
C    -4.694000000    -2.951000000     5.378000000
H    -5.763000000    -2.880000000     5.194000000
C    -4.170000000    -4.170000000     5.665000000
H    -4.857000000    -5.012000000     5.678000000
C    -2.773000000    -4.275000000     5.768000000
H    -2.296000000    -5.240000000     5.916000000
C    -1.942000000    -3.166000000     5.615000000
O    -0.616000000    -3.276000000     5.729000000
C     0.318000000    -3.568000000     4.743000000
C     1.630000000    -3.744000000     5.169000000
H     1.813000000    -3.627000000     6.234000000
C     2.623000000    -4.115000000     4.288000000
O     3.935000000    -4.352000000     4.669000000
C     4.968000000    -3.883000000     3.859000000
C     4.984000000    -2.559000000     3.518000000
H     4.158000000    -1.921000000     3.822000000
C     6.033000000    -4.703000000     3.629000000
H     5.998000000    -5.742000000     3.947000000
C     7.160000000    -4.219000000     2.953000000
H     7.917000000    -4.978000000     2.773000000
C     7.147000000    -2.960000000     2.483000000
H     7.948000000    -2.574000000     1.857000000
C     6.048000000    -2.076000000     2.702000000
O     6.176000000    -0.758000000     2.400000000
C     5.595000000    -0.055000000     1.398000000
C     5.572000000     1.312000000     1.563000000
H     5.892000000     1.744000000     2.508000000
C     4.848000000     2.054000000     0.642000000
O     4.533000000     3.315000000     1.005000000
C     4.417000000     4.330000000     0.113000000
C     5.478000000     4.839000000    -0.667000000
H     6.443000000     4.348000000    -0.573000000
C     5.334000000     5.941000000    -1.438000000
H     6.143000000     6.387000000    -2.011000000
C     4.080000000     6.564000000    -1.476000000
H     3.881000000     7.445000000    -2.081000000
C     3.009000000     6.091000000    -0.742000000
C     3.212000000     5.070000000     0.156000000
H     2.364000000     4.692000000     0.720000000
O    -2.921000000     1.850000000     6.944000000
H    -3.185000000     2.659000000     6.506000000
H    -3.716000000     1.318000000     6.964000000
O    -2.873000000     4.079000000     5.154000000
H    -2.563000000     4.974000000     5.287000000
H    -2.152000000     3.640000000     4.702000000
O    -0.344000000    -1.914000000     9.026000000
H     0.553000000    -1.927000000     9.362000000
H    -0.331000000    -1.252000000     8.335000000
O     3.467000000     1.752000000     9.255000000
H     3.238000000     1.805000000     8.327000000
H     4.383000000     1.475000000     9.261000000
O     2.414000000    -0.009000000     5.873000000
H     1.808000000     0.663000000     5.561000000
H     1.851000000    -0.674000000     6.270000000
O    -1.473000000     6.466000000     4.786000000
H    -1.996000000     7.160000000     4.385000000
H    -1.136000000     5.961000000     4.046000000
O    -5.067000000     4.240000000     7.956000000
H    -5.504000000     3.397000000     7.836000000
H    -4.977000000     4.591000000     7.070000000
O    -0.443000000     0.635000000     7.495000000
H    -0.176000000     1.049000000     6.675000000
H    -1.370000000     0.856000000     7.584000000
O     5.209000000     0.313000000     5.854000000
H     4.254000000     0.364000000     5.828000000
H     5.398000000    -0.624000000     5.893000000
O    -2.880000000     1.554000000     9.991000000
H    -2.918000000     1.665000000     9.041000000
H    -3.716000000     1.148000000    10.219000000
O     4.558000000     5.497000000     3.004000000
H     3.720000000     5.756000000     3.389000000
H     4.407000000     4.610000000     2.677000000
O     1.782000000     3.827000000     5.687000000
H     2.609000000     3.369000000     5.538000000
H     1.117000000     3.246000000     5.318000000
O    -5.096000000     5.632000000     5.379000000
H    -4.974000000     4.840000000     4.856000000
H    -4.594000000     6.303000000     4.917000000
O     4.494000000     3.273000000     4.991000000
H     5.182000000     2.608000000     5.008000000
H     4.937000000     4.069000000     4.697000000
O     0.228000000     5.834000000     6.763000000
H     0.837000000     5.180000000     6.422000000
H    -0.533000000     5.778000000     6.185000000
O     3.213000000     6.115000000     5.801000000
H     2.659000000     5.359000000     5.608000000
H     2.933000000     6.783000000     5.175000000
O     1.962000000     6.730000000     3.383000000
H     1.739000000     7.644000000     3.209000000
H     1.165000000     6.244000000     3.170000000
O    -0.344000000     5.307000000     2.459000000
H    -0.472000000     4.487000000     2.935000000
H    -0.439000000     5.067000000     1.537000000
O     1.014000000     0.567000000     9.938000000
H     1.758000000     1.076000000     9.615000000
H     0.481000000     0.402000000     9.160000000
