201
-1259.09247
C    -4.287000000    -0.145000000     2.592000000
H    -4.100000000    -1.214000000     2.518000000
C    -4.702000000     0.633000000     1.512000000
C    -4.894000000     2.005000000     1.676000000
H    -5.114000000     2.688000000     0.859000000
C    -4.497000000    -0.002000000     0.190000000
O    -4.933000000    -1.436000000     0.031000000
H    -3.429000000     0.024000000    -0.071000000
O    -4.970000000     0.820000000    -0.948000000
C    -4.159000000     1.096000000    -2.051000000
C    -3.488000000     2.320000000    -2.034000000
H    -3.690000000     3.036000000    -1.242000000
C    -2.523000000     2.607000000    -3.020000000
O    -1.809000000     3.771000000    -2.862000000
C    -2.261000000     1.719000000    -4.065000000
C    -1.228000000     1.926000000    -5.054000000
H    -1.566000000     1.368000000    -5.930000000
C     0.121000000     1.438000000    -4.616000000
C     0.561000000     0.176000000    -5.024000000
H    -0.020000000    -0.424000000    -5.720000000
H    -1.248000000     2.965000000    -5.391000000
C    -2.974000000     0.581000000    -4.079000000
H    -2.723000000    -0.115000000    -4.875000000
C    -3.902000000     0.246000000    -3.090000000
C    -4.627000000    -1.175000000    -3.003000000
H    -4.698000000    -1.584000000    -4.013000000
H    -5.567000000    -1.112000000    -2.451000000
C    -3.835000000    -2.147000000    -2.129000000
C    -2.900000000    -3.003000000    -2.719000000
H    -2.792000000    -2.929000000    -3.798000000
C    -4.099000000    -2.282000000    -0.728000000
C    -3.335000000    -3.179000000    -0.047000000
H    -3.568000000    -3.353000000     1.000000000
C    -2.319000000    -3.917000000    -0.603000000
O    -1.494000000    -4.691000000     0.186000000
C    -0.243000000    -4.089000000     0.537000000
C     0.061000000    -4.239000000     1.989000000
C     1.356000000    -3.962000000     2.482000000
H     2.140000000    -3.731000000     1.766000000
C    -1.001000000    -4.441000000     2.876000000
H    -2.024000000    -4.544000000     2.524000000
O     0.723000000    -4.774000000    -0.251000000
H    -0.301000000    -3.017000000     0.299000000
C    -2.072000000    -3.818000000    -1.988000000
C    -1.099000000    -4.764000000    -2.629000000
H    -1.363000000    -4.862000000    -3.684000000
H    -1.105000000    -5.760000000    -2.181000000
C     0.223000000    -4.092000000    -2.618000000
C     0.610000000    -3.333000000    -3.693000000
H    -0.074000000    -3.109000000    -4.507000000
C     1.037000000    -4.126000000    -1.457000000
C     2.273000000    -3.510000000    -1.471000000
H     2.871000000    -3.528000000    -0.564000000
C     2.673000000    -2.840000000    -2.557000000
O     3.885000000    -2.080000000    -2.419000000
C     3.798000000    -0.735000000    -1.960000000
C     4.833000000    -0.419000000    -0.932000000
C     5.339000000    -1.396000000    -0.101000000
H     5.097000000    -2.454000000    -0.139000000
C     5.232000000     0.930000000    -0.700000000
H     4.814000000     1.697000000    -1.346000000
O     3.800000000     0.070000000    -3.185000000
H     2.866000000    -0.648000000    -1.381000000
C     1.865000000    -2.713000000    -3.666000000
C     2.254000000    -1.798000000    -4.808000000
H     1.705000000    -2.003000000    -5.729000000
H     3.311000000    -1.757000000    -5.080000000
C     1.839000000    -0.325000000    -4.552000000
C     2.592000000     0.486000000    -3.729000000
C     2.238000000     1.771000000    -3.471000000
H     2.835000000     2.455000000    -2.873000000
C     0.968000000     2.275000000    -3.848000000
O     0.556000000     3.496000000    -3.450000000
C    -0.434000000     3.565000000    -2.403000000
H    -0.426000000     2.632000000    -1.820000000
C     0.022000000     4.482000000    -1.304000000
C    -0.836000000     4.927000000    -0.341000000
H    -1.893000000     4.762000000    -0.536000000
C     1.334000000     4.721000000    -1.013000000
H     2.107000000     4.385000000    -1.699000000
C     1.782000000     5.512000000     0.062000000
O     3.070000000     5.839000000     0.135000000
C     0.885000000     6.020000000     0.950000000
H     1.133000000     6.680000000     1.777000000
C    -0.479000000     5.755000000     0.746000000
O    -1.308000000     6.372000000     1.650000000
C    -2.643000000     6.074000000     1.629000000
C    -3.125000000     5.038000000     2.379000000
H    -2.527000000     4.472000000     3.089000000
C    -3.453000000     6.945000000     0.950000000
H    -3.075000000     7.836000000     0.457000000
C    -4.849000000     6.738000000     0.889000000
H    -5.480000000     7.362000000     0.261000000
C    -5.382000000     5.682000000     1.627000000
H    -6.457000000     5.536000000     1.689000000
C    -4.511000000     4.876000000     2.414000000
O    -5.079000000     3.868000000     3.165000000
C    -4.733000000     2.563000000     3.001000000
C    -4.368000000     1.729000000     4.048000000
H    -4.323000000     2.140000000     5.053000000
C    -4.107000000     0.399000000     3.864000000
O    -3.757000000    -0.332000000     4.942000000
C    -3.824000000    -1.750000000     5.051000000
C    -2.660000000    -2.502000000     5.064000000
H    -1.651000000    -2.104000000     4.999000000
C    -5.012000000    -2.324000000     5.140000000
H    -5.949000000    -1.773000000     5.164000000
C    -5.129000000    -3.713000000     5.031000000
H    -6.124000000    -4.141000000     4.941000000
C    -4.034000000    -4.548000000     5.032000000
H    -4.168000000    -5.627000000     5.045000000
C    -2.802000000    -3.862000000     5.078000000
O    -1.684000000    -4.615000000     5.168000000
C    -0.680000000    -4.541000000     4.256000000
C     0.648000000    -4.355000000     4.730000000
H     0.890000000    -4.375000000     5.789000000
C     1.658000000    -4.017000000     3.808000000
O     2.923000000    -3.728000000     4.280000000
C     4.093000000    -3.951000000     3.546000000
C     4.871000000    -2.803000000     3.207000000
H     4.526000000    -1.820000000     3.518000000
C     4.437000000    -5.243000000     3.116000000
H     3.882000000    -6.118000000     3.443000000
C     5.615000000    -5.467000000     2.356000000
H     5.972000000    -6.458000000     2.087000000
C     6.302000000    -4.340000000     1.875000000
H     7.256000000    -4.481000000     1.373000000
C     5.875000000    -3.043000000     2.286000000
O     6.616000000    -1.968000000     1.916000000
C     6.133000000    -1.084000000     0.972000000
C     6.612000000     0.201000000     1.155000000
H     7.269000000     0.316000000     2.013000000
C     6.145000000     1.218000000     0.308000000
O     6.566000000     2.524000000     0.572000000
C     5.938000000     3.580000000    -0.108000000
C     6.558000000     3.997000000    -1.346000000
H     7.436000000     3.504000000    -1.756000000
C     5.964000000     5.090000000    -2.005000000
H     6.480000000     5.339000000    -2.929000000
C     4.782000000     5.686000000    -1.539000000
H     4.384000000     6.595000000    -1.983000000
C     4.151000000     5.163000000    -0.406000000
C     4.791000000     4.156000000     0.313000000
H     4.430000000     3.791000000     1.271000000
O     1.368000000     7.491000000     4.449000000
H     0.573000000     7.000000000     4.655000000
H     2.004000000     6.822000000     4.197000000
O     2.191000000     2.426000000     2.027000000
H     1.515000000     1.786000000     2.249000000
H     2.794000000     2.405000000     2.770000000
O    -1.082000000     6.644000000     5.269000000
H    -1.680000000     6.916000000     4.574000000
H    -1.394000000     5.778000000     5.529000000
O    -4.744000000    -0.595000000     8.320000000
H    -3.839000000    -0.301000000     8.209000000
H    -4.676000000    -1.543000000     8.434000000
O     3.258000000    -0.476000000     6.576000000
H     4.182000000    -0.258000000     6.448000000
H     2.845000000     0.356000000     6.805000000
O    -1.548000000    -1.947000000     9.351000000
H    -0.754000000    -1.713000000     9.832000000
H    -1.305000000    -1.855000000     8.430000000
O     1.190000000     2.237000000    10.255000000
H     0.920000000     2.156000000     9.340000000
H     0.761000000     3.036000000    10.562000000
O    -2.241000000     0.786000000     7.298000000
H    -2.665000000     0.534000000     6.477000000
H    -1.305000000     0.677000000     7.126000000
O    -0.175000000    -1.871000000     6.931000000
H    -0.295000000    -1.086000000     6.397000000
H     0.760000000    -2.066000000     6.865000000
O    -5.654000000     5.673000000     5.293000000
H    -5.477000000     4.996000000     4.639000000
H    -4.922000000     6.284000000     5.209000000
O    -3.142000000     2.840000000     9.012000000
H    -2.764000000     2.237000000     8.372000000
H    -3.497000000     2.273000000     9.696000000
O    -0.599000000     5.728000000     8.264000000
H    -1.190000000     5.173000000     8.773000000
H    -1.179000000     6.325000000     7.791000000
O     3.311000000     2.971000000     7.389000000
H     2.558000000     2.688000000     7.909000000
H     3.558000000     3.815000000     7.766000000
O     2.701000000     5.244000000     3.860000000
H     2.359000000     4.737000000     4.596000000
H     2.469000000     4.730000000     3.087000000
O     3.457000000     2.482000000     4.511000000
H     2.978000000     1.657000000     4.434000000
H     3.597000000     2.590000000     5.452000000
O     2.464000000    -2.678000000     7.808000000
H     2.760000000    -1.814000000     7.523000000
H     2.080000000    -2.526000000     8.672000000
O     0.623000000     4.196000000     5.658000000
H    -0.072000000     3.563000000     5.478000000
H     0.195000000     4.883000000     6.169000000
O     0.713000000     2.110000000     7.487000000
H     0.514000000     1.434000000     6.840000000
H     0.824000000     2.910000000     6.973000000
O    -2.555000000     4.247000000     5.794000000
H    -2.031000000     3.574000000     5.358000000
H    -3.223000000     3.757000000     6.273000000
