201
-1248.15681
C    -3.476000000    -1.467000000     3.430000000
H    -3.267000000    -2.441000000     2.996000000
C    -3.930000000    -0.436000000     2.614000000
C    -4.131000000     0.808000000     3.180000000
H    -4.597000000     1.558000000     2.546000000
C    -4.047000000    -0.606000000     1.144000000
O    -4.365000000    -1.989000000     0.850000000
H    -3.096000000    -0.327000000     0.667000000
O    -4.953000000     0.241000000     0.434000000
C    -4.494000000     0.829000000    -0.677000000
C    -3.908000000     2.130000000    -0.574000000
H    -3.976000000     2.694000000     0.353000000
C    -3.347000000     2.696000000    -1.751000000
O    -2.777000000     3.900000000    -1.541000000
C    -3.274000000     1.972000000    -2.980000000
C    -2.706000000     2.522000000    -4.187000000
H    -2.994000000     2.034000000    -5.120000000
C    -1.218000000     2.275000000    -4.171000000
C    -0.678000000     1.131000000    -4.877000000
H    -1.402000000     0.576000000    -5.468000000
H    -3.021000000     3.564000000    -4.268000000
C    -3.864000000     0.724000000    -3.092000000
H    -3.835000000     0.232000000    -4.061000000
C    -4.475000000     0.149000000    -1.954000000
C    -4.863000000    -1.329000000    -2.013000000
H    -5.226000000    -1.608000000    -3.004000000
H    -5.755000000    -1.381000000    -1.384000000
C    -3.871000000    -2.305000000    -1.557000000
C    -3.028000000    -2.892000000    -2.574000000
H    -3.136000000    -2.540000000    -3.596000000
C    -3.630000000    -2.594000000    -0.217000000
C    -2.517000000    -3.391000000     0.113000000
H    -2.306000000    -3.665000000     1.144000000
C    -1.770000000    -4.005000000    -0.844000000
O    -0.751000000    -4.770000000    -0.325000000
C     0.553000000    -4.264000000    -0.377000000
C     1.355000000    -4.763000000     0.861000000
C     2.755000000    -4.883000000     0.778000000
H     3.250000000    -4.637000000    -0.157000000
C     0.683000000    -4.910000000     2.082000000
H    -0.379000000    -4.699000000     2.182000000
O     1.195000000    -4.584000000    -1.637000000
H     0.469000000    -3.169000000    -0.314000000
C    -1.980000000    -3.748000000    -2.228000000
C    -1.099000000    -4.354000000    -3.334000000
H    -1.698000000    -4.462000000    -4.241000000
H    -0.721000000    -5.332000000    -3.030000000
C     0.093000000    -3.436000000    -3.504000000
C     0.212000000    -2.505000000    -4.525000000
H    -0.695000000    -2.236000000    -5.060000000
C     1.217000000    -3.679000000    -2.686000000
C     2.366000000    -2.875000000    -2.829000000
H     3.183000000    -2.922000000    -2.114000000
C     2.360000000    -1.773000000    -3.668000000
O     3.467000000    -0.901000000    -3.555000000
C     3.157000000     0.344000000    -2.850000000
C     4.190000000     0.807000000    -1.874000000
C     4.691000000    -0.158000000    -1.012000000
H     4.235000000    -1.144000000    -0.975000000
C     4.617000000     2.158000000    -1.745000000
H     4.256000000     2.933000000    -2.416000000
O     2.836000000     1.291000000    -3.870000000
H     2.262000000     0.243000000    -2.219000000
C     1.244000000    -1.586000000    -4.529000000
C     1.229000000    -0.466000000    -5.562000000
H     0.565000000    -0.761000000    -6.377000000
H     2.252000000    -0.345000000    -5.924000000
C     0.668000000     0.817000000    -4.864000000
C     1.538000000     1.564000000    -4.034000000
C     1.035000000     2.633000000    -3.290000000
H     1.729000000     3.186000000    -2.662000000
C    -0.323000000     2.980000000    -3.348000000
O    -0.800000000     4.038000000    -2.600000000
C    -1.397000000     3.801000000    -1.344000000
H    -1.221000000     2.762000000    -1.026000000
C    -0.940000000     4.700000000    -0.170000000
C    -1.711000000     4.891000000     0.932000000
H    -2.748000000     4.566000000     0.932000000
C     0.373000000     5.191000000    -0.202000000
H     0.961000000     4.896000000    -1.068000000
C     0.929000000     5.833000000     0.928000000
O     2.262000000     6.217000000     1.042000000
C     0.138000000     6.023000000     2.052000000
H     0.463000000     6.679000000     2.855000000
C    -1.171000000     5.598000000     2.008000000
O    -2.058000000     5.785000000     3.082000000
C    -3.307000000     5.140000000     3.262000000
C    -3.265000000     3.975000000     3.955000000
H    -2.306000000     3.758000000     4.419000000
C    -4.502000000     5.590000000     2.745000000
H    -4.420000000     6.395000000     2.019000000
C    -5.713000000     4.844000000     2.983000000
H    -6.621000000     5.289000000     2.584000000
C    -5.697000000     3.794000000     3.865000000
H    -6.635000000     3.306000000     4.118000000
C    -4.445000000     3.333000000     4.335000000
O    -4.444000000     2.196000000     5.134000000
C    -4.028000000     1.001000000     4.559000000
C    -3.600000000    -0.033000000     5.392000000
H    -3.483000000     0.112000000     6.463000000
C    -3.330000000    -1.270000000     4.817000000
O    -2.972000000    -2.283000000     5.636000000
C    -2.432000000    -3.534000000     5.232000000
C    -1.105000000    -3.739000000     4.902000000
H    -0.440000000    -2.898000000     5.083000000
C    -3.302000000    -4.610000000     5.202000000
H    -4.342000000    -4.366000000     5.407000000
C    -2.811000000    -5.901000000     4.994000000
H    -3.505000000    -6.738000000     4.983000000
C    -1.498000000    -6.094000000     4.822000000
H    -1.173000000    -7.119000000     4.666000000
C    -0.607000000    -5.041000000     4.689000000
O     0.714000000    -5.318000000     4.465000000
C     1.384000000    -5.121000000     3.249000000
C     2.760000000    -5.320000000     3.152000000
H     3.409000000    -5.427000000     4.017000000
C     3.442000000    -5.208000000     1.942000000
O     4.878000000    -5.236000000     2.025000000
C     5.665000000    -4.277000000     1.429000000
C     5.334000000    -2.902000000     1.460000000
H     4.447000000    -2.564000000     1.989000000
C     6.682000000    -4.678000000     0.592000000
H     6.914000000    -5.739000000     0.547000000
C     7.403000000    -3.725000000    -0.218000000
H     8.189000000    -4.012000000    -0.911000000
C     7.113000000    -2.403000000    -0.092000000
H     7.737000000    -1.685000000    -0.619000000
C     6.158000000    -1.956000000     0.753000000
O     6.115000000    -0.615000000     0.974000000
C     5.589000000     0.208000000     0.022000000
C     5.976000000     1.494000000     0.153000000
H     6.823000000     1.693000000     0.805000000
C     5.559000000     2.453000000    -0.742000000
O     5.986000000     3.747000000    -0.662000000
C     5.068000000     4.733000000    -0.880000000
C     4.975000000     5.439000000    -2.059000000
H     5.695000000     5.164000000    -2.826000000
C     3.936000000     6.293000000    -2.199000000
H     3.769000000     6.752000000    -3.170000000
C     3.044000000     6.617000000    -1.177000000
H     2.293000000     7.393000000    -1.299000000
C     3.215000000     5.989000000     0.031000000
C     4.222000000     5.029000000     0.179000000
H     4.280000000     4.438000000     1.090000000
O    -0.911000000     4.972000000     6.671000000
H    -0.075000000     4.850000000     6.220000000
H    -1.271000000     5.775000000     6.294000000
O     6.531000000     1.162000000     3.753000000
H     5.615000000     0.954000000     3.570000000
H     6.609000000     1.081000000     4.704000000
O    -2.193000000     2.455000000     6.753000000
H    -1.835000000     3.339000000     6.680000000
H    -3.054000000     2.510000000     6.338000000
O     2.711000000    -3.490000000     5.886000000
H     3.535000000    -3.235000000     5.470000000
H     2.403000000    -2.691000000     6.314000000
O     2.361000000     2.272000000     7.523000000
H     2.794000000     3.118000000     7.411000000
H     2.385000000     1.874000000     6.653000000
O     3.723000000    -0.789000000     6.458000000
H     3.973000000    -0.716000000     5.537000000
H     3.864000000     0.088000000     6.814000000
O     6.443000000     1.993000000     8.542000000
H     5.707000000     1.935000000     7.932000000
H     6.148000000     2.607000000     9.215000000
O     8.998000000     0.882000000     2.643000000
H     9.548000000     1.116000000     3.391000000
H     8.180000000     1.356000000     2.790000000
O     7.655000000    -1.261000000     4.721000000
H     7.835000000    -0.815000000     5.549000000
H     7.430000000    -0.557000000     4.113000000
O     6.384000000    -2.295000000     7.575000000
H     6.514000000    -3.214000000     7.343000000
H     5.515000000    -2.082000000     7.233000000
O     0.880000000    -1.050000000     7.640000000
H     0.378000000    -0.394000000     7.157000000
H     1.794000000    -0.820000000     7.478000000
O    -0.006000000     2.868000000     8.678000000
H    -0.333000000     3.362000000     7.926000000
H     0.687000000     2.315000000     8.317000000
O     2.659000000     2.980000000    10.140000000
H     2.548000000     2.777000000     9.211000000
H     2.623000000     2.129000000    10.576000000
O     4.881000000     5.311000000     4.772000000
H     4.795000000     5.826000000     3.969000000
H     4.166000000     5.617000000     5.330000000
O     7.513000000     4.074000000     4.062000000
H     6.690000000     4.502000000     4.295000000
H     7.393000000     3.162000000     4.326000000
O     5.126000000    -3.049000000     4.751000000
H     5.276000000    -3.915000000     4.373000000
H     5.963000000    -2.596000000     4.654000000
O     1.105000000     4.530000000     4.794000000
H     1.375000000     3.614000000     4.730000000
H     1.608000000     4.977000000     4.114000000
O     4.800000000     2.414000000     5.997000000
H     4.560000000     3.245000000     5.588000000
H     4.365000000     1.750000000     5.462000000
O    -0.254000000     0.344000000     5.643000000
H     0.303000000     0.895000000     5.094000000
H    -0.989000000     0.909000000     5.882000000
