201
-1228.70294
C    -4.418000000     1.392000000    -2.622000000
H    -3.915000000     1.649000000    -3.551000000
C    -3.983000000     2.065000000    -1.494000000
C    -4.553000000     1.725000000    -0.274000000
H    -4.203000000     2.207000000     0.635000000
C    -2.692000000     2.891000000    -1.445000000
O    -2.415000000     3.411000000    -2.758000000
H    -1.948000000     2.117000000    -1.206000000
O    -2.666000000     3.803000000    -0.386000000
C    -1.471000000     4.095000000     0.201000000
C    -1.489000000     3.753000000     1.556000000
H    -2.428000000     3.494000000     2.038000000
C    -0.281000000     3.906000000     2.246000000
O    -0.371000000     3.368000000     3.483000000
C     0.901000000     4.479000000     1.641000000
C     2.252000000     4.694000000     2.434000000
H     2.906000000     5.462000000     2.015000000
C     3.068000000     3.361000000     2.513000000
C     3.974000000     3.148000000     1.453000000
H     4.220000000     3.844000000     0.655000000
H     2.148000000     5.095000000     3.445000000
C     0.836000000     4.778000000     0.323000000
H     1.757000000     5.137000000    -0.129000000
C    -0.373000000     4.757000000    -0.391000000
C    -0.485000000     5.176000000    -1.858000000
H     0.097000000     6.074000000    -2.077000000
H    -1.503000000     5.511000000    -2.069000000
C    -0.057000000     4.043000000    -2.748000000
C     1.277000000     3.802000000    -3.089000000
H     2.050000000     4.448000000    -2.680000000
C    -1.053000000     3.279000000    -3.208000000
C    -0.852000000     2.204000000    -4.024000000
H    -1.685000000     1.552000000    -4.275000000
C     0.476000000     2.019000000    -4.451000000
O     0.708000000     0.870000000    -5.153000000
C     0.995000000    -0.361000000    -4.389000000
C     0.048000000    -1.544000000    -4.715000000
C     0.261000000    -2.758000000    -4.067000000
H     1.096000000    -2.766000000    -3.371000000
C    -1.109000000    -1.382000000    -5.493000000
H    -1.197000000    -0.498000000    -6.120000000
O     2.401000000    -0.598000000    -4.156000000
H     0.727000000    -0.162000000    -3.341000000
C     1.532000000     2.754000000    -3.939000000
C     2.964000000     2.326000000    -4.113000000
H     3.590000000     3.191000000    -3.885000000
H     3.233000000     1.995000000    -5.118000000
C     3.415000000     1.396000000    -3.028000000
C     4.218000000     1.866000000    -1.939000000
H     4.530000000     2.903000000    -1.846000000
C     3.058000000     0.063000000    -3.078000000
C     3.537000000    -0.775000000    -2.120000000
H     3.271000000    -1.828000000    -2.156000000
C     4.286000000    -0.355000000    -1.086000000
O     4.626000000    -1.279000000    -0.104000000
C     3.904000000    -1.164000000     1.162000000
C     3.455000000    -2.489000000     1.687000000
C     3.106000000    -3.538000000     0.799000000
H     3.042000000    -3.348000000    -0.270000000
C     3.407000000    -2.731000000     3.085000000
H     3.715000000    -1.998000000     3.826000000
O     4.731000000    -0.426000000     2.187000000
H     2.981000000    -0.594000000     0.975000000
C     4.642000000     1.032000000    -0.932000000
C     5.548000000     1.563000000     0.244000000
H     6.118000000     2.372000000    -0.218000000
H     6.227000000     0.757000000     0.529000000
C     4.620000000     1.887000000     1.419000000
C     4.267000000     0.838000000     2.292000000
C     3.395000000     1.055000000     3.325000000
H     3.210000000     0.295000000     4.080000000
C     2.813000000     2.311000000     3.433000000
O     1.729000000     2.385000000     4.352000000
C     0.369000000     2.149000000     3.740000000
H     0.422000000     1.589000000     2.794000000
C    -0.413000000     1.101000000     4.471000000
C    -1.608000000     0.572000000     3.912000000
H    -2.058000000     1.010000000     3.024000000
C     0.185000000     0.362000000     5.525000000
H     1.070000000     0.738000000     6.033000000
C    -0.377000000    -0.794000000     5.984000000
O     0.112000000    -1.426000000     7.061000000
C    -1.562000000    -1.244000000     5.480000000
H    -2.032000000    -2.101000000     5.957000000
C    -2.174000000    -0.613000000     4.448000000
O    -3.466000000    -0.952000000     4.092000000
C    -4.426000000    -0.049000000     3.806000000
C    -4.834000000     0.034000000     2.501000000
H    -4.295000000    -0.637000000     1.837000000
C    -4.888000000     0.820000000     4.765000000
H    -4.462000000     0.786000000     5.765000000
C    -6.004000000     1.612000000     4.498000000
H    -6.355000000     2.261000000     5.296000000
C    -6.503000000     1.653000000     3.175000000
H    -7.403000000     2.222000000     2.960000000
C    -5.945000000     0.854000000     2.210000000
O    -6.467000000     0.863000000     0.914000000
C    -5.723000000     0.999000000    -0.235000000
C    -6.265000000     0.487000000    -1.410000000
H    -7.168000000    -0.107000000    -1.300000000
C    -5.633000000     0.677000000    -2.620000000
O    -6.209000000     0.156000000    -3.749000000
C    -5.531000000     0.041000000    -4.956000000
C    -4.618000000    -0.967000000    -5.028000000
H    -4.340000000    -1.491000000    -4.117000000
C    -5.986000000     0.703000000    -6.117000000
H    -6.818000000     1.396000000    -6.031000000
C    -5.500000000     0.345000000    -7.380000000
H    -5.878000000     0.867000000    -8.255000000
C    -4.517000000    -0.666000000    -7.438000000
H    -4.103000000    -0.995000000    -8.388000000
C    -4.081000000    -1.281000000    -6.271000000
O    -3.184000000    -2.313000000    -6.374000000
C    -2.022000000    -2.431000000    -5.633000000
C    -1.745000000    -3.668000000    -5.031000000
H    -2.355000000    -4.528000000    -5.295000000
C    -0.613000000    -3.832000000    -4.217000000
O    -0.384000000    -4.969000000    -3.424000000
C     0.833000000    -5.306000000    -2.855000000
C     0.985000000    -5.359000000    -1.469000000
H     0.130000000    -5.272000000    -0.803000000
C     1.905000000    -5.571000000    -3.682000000
H     1.755000000    -5.520000000    -4.757000000
C     3.126000000    -6.010000000    -3.091000000
H     4.020000000    -6.199000000    -3.679000000
C     3.257000000    -6.020000000    -1.736000000
H     4.130000000    -6.557000000    -1.375000000
C     2.180000000    -5.788000000    -0.905000000
O     2.263000000    -5.750000000     0.502000000
C     2.649000000    -4.770000000     1.314000000
C     2.590000000    -4.955000000     2.691000000
H     2.321000000    -5.932000000     3.085000000
C     3.008000000    -3.998000000     3.592000000
O     3.142000000    -4.312000000     4.899000000
C     2.903000000    -3.486000000     6.008000000
C     3.814000000    -3.210000000     7.045000000
H     4.828000000    -3.577000000     6.910000000
C     3.469000000    -2.406000000     8.162000000
H     4.263000000    -2.194000000     8.873000000
C     2.221000000    -1.882000000     8.221000000
H     1.897000000    -1.204000000     9.006000000
C     1.297000000    -2.109000000     7.132000000
C     1.632000000    -2.902000000     6.082000000
H     1.012000000    -3.006000000     5.195000000
O    -8.054000000    -5.607000000     2.911000000
H    -7.734000000    -6.445000000     2.578000000
H    -7.444000000    -4.959000000     2.558000000
O    -6.223000000    -3.950000000     1.701000000
H    -6.228000000    -3.733000000     0.768000000
H    -5.295000000    -3.995000000     1.931000000
O    -0.914000000    -8.947000000     2.905000000
H    -0.929000000    -8.039000000     2.602000000
H    -0.918000000    -9.468000000     2.102000000
O    -5.532000000    -3.175000000    -1.647000000
H    -6.385000000    -3.067000000    -2.069000000
H    -5.215000000    -2.281000000    -1.517000000
O    -7.820000000    -7.039000000     0.391000000
H    -7.887000000    -7.986000000     0.514000000
H    -7.172000000    -6.934000000    -0.305000000
O    -4.315000000    -8.471000000    -0.038000000
H    -3.596000000    -8.032000000    -0.493000000
H    -5.095000000    -8.239000000    -0.542000000
O    -3.451000000    -6.736000000     7.897000000
H    -3.668000000    -6.633000000     6.970000000
H    -3.353000000    -7.680000000     8.016000000
O    -3.863000000    -6.194000000     5.193000000
H    -4.157000000    -5.295000000     5.340000000
H    -3.816000000    -6.278000000     4.241000000
O    -0.469000000    -6.233000000     2.104000000
H     0.246000000    -5.624000000     1.918000000
H    -1.195000000    -5.672000000     2.378000000
O    -2.463000000    -9.812000000     4.944000000
H    -1.771000000    -9.549000000     4.337000000
H    -2.713000000    -9.002000000     5.389000000
O    -2.606000000    -7.468000000    -2.012000000
H    -2.984000000    -6.621000000    -1.778000000
H    -2.406000000    -7.391000000    -2.945000000
O    -4.000000000    -6.734000000     2.597000000
H    -3.746000000    -6.054000000     1.972000000
H    -4.127000000    -7.516000000     2.060000000
O    -4.199000000    -5.365000000    -1.053000000
H    -4.969000000    -4.856000000    -1.307000000
H    -3.881000000    -4.938000000    -0.258000000
O    -1.149000000    -5.095000000     8.134000000
H    -0.998000000    -4.536000000     7.371000000
H    -1.885000000    -5.651000000     7.881000000
O    -0.838000000    -4.614000000     5.239000000
H    -0.221000000    -5.241000000     4.861000000
H    -1.460000000    -4.435000000     4.534000000
O    -7.340000000    -2.151000000     4.321000000
H    -6.604000000    -2.689000000     4.031000000
H    -7.908000000    -2.758000000     4.795000000
O    -4.292000000    -3.474000000     4.623000000
H    -4.102000000    -4.047000000     3.881000000
H    -3.878000000    -2.642000000     4.396000000
O    -1.060000000    -7.412000000     6.229000000
H    -0.809000000    -6.942000000     7.025000000
H    -1.417000000    -6.735000000     5.654000000
O    -3.526000000   -10.349000000     2.035000000
H    -2.862000000    -9.995000000     2.626000000
H    -3.834000000    -9.590000000     1.539000000
