201
-1231.73004
C    -4.570000000    -1.428000000     2.551000000
H    -4.337000000    -2.428000000     2.196000000
C    -4.753000000    -0.446000000     1.571000000
C    -5.027000000     0.881000000     2.003000000
H    -5.141000000     1.651000000     1.245000000
C    -4.344000000    -0.636000000     0.146000000
O    -4.617000000    -2.007000000    -0.140000000
H    -3.253000000    -0.586000000     0.020000000
O    -4.968000000     0.248000000    -0.736000000
C    -4.102000000     0.660000000    -1.733000000
C    -3.485000000     1.839000000    -1.495000000
H    -3.687000000     2.352000000    -0.558000000
C    -2.745000000     2.455000000    -2.435000000
O    -2.177000000     3.648000000    -2.087000000
C    -2.513000000     1.837000000    -3.655000000
C    -1.592000000     2.484000000    -4.645000000
H    -1.819000000     2.156000000    -5.662000000
C    -0.177000000     2.160000000    -4.387000000
C     0.353000000     0.954000000    -4.863000000
H    -0.268000000     0.248000000    -5.409000000
H    -1.854000000     3.545000000    -4.658000000
C    -3.066000000     0.556000000    -3.924000000
H    -2.763000000    -0.020000000    -4.794000000
C    -3.971000000     0.000000000    -2.935000000
C    -4.506000000    -1.417000000    -3.022000000
H    -4.572000000    -1.741000000    -4.063000000
H    -5.491000000    -1.576000000    -2.578000000
C    -3.628000000    -2.427000000    -2.303000000
C    -2.595000000    -3.139000000    -3.003000000
H    -2.355000000    -2.962000000    -4.048000000
C    -3.681000000    -2.625000000    -0.903000000
C    -2.848000000    -3.522000000    -0.278000000
H    -2.886000000    -3.513000000     0.808000000
C    -1.865000000    -4.169000000    -0.976000000
O    -0.963000000    -4.879000000    -0.304000000
C     0.262000000    -4.214000000     0.022000000
C     0.692000000    -4.534000000     1.457000000
C     2.052000000    -4.548000000     1.866000000
H     2.785000000    -4.246000000     1.123000000
C    -0.286000000    -4.692000000     2.477000000
H    -1.342000000    -4.643000000     2.222000000
O     1.351000000    -4.595000000    -0.902000000
H     0.217000000    -3.115000000    -0.023000000
C    -1.704000000    -3.941000000    -2.340000000
C    -0.535000000    -4.602000000    -3.131000000
H    -0.842000000    -4.663000000    -4.178000000
H    -0.245000000    -5.598000000    -2.789000000
C     0.741000000    -3.734000000    -3.026000000
C     0.825000000    -2.666000000    -3.876000000
H     0.180000000    -2.618000000    -4.749000000
C     1.617000000    -3.843000000    -1.953000000
C     2.713000000    -3.001000000    -1.943000000
H     3.333000000    -3.111000000    -1.057000000
C     2.820000000    -1.926000000    -2.753000000
O     4.002000000    -1.147000000    -2.714000000
C     3.833000000     0.223000000    -2.337000000
C     4.831000000     0.642000000    -1.300000000
C     5.294000000    -0.271000000    -0.313000000
H     5.176000000    -1.330000000    -0.526000000
C     5.109000000     2.034000000    -1.134000000
H     4.614000000     2.794000000    -1.732000000
O     3.688000000     1.108000000    -3.470000000
H     2.898000000     0.223000000    -1.758000000
C     1.944000000    -1.830000000    -3.847000000
C     2.167000000    -0.789000000    -4.971000000
H     1.508000000    -1.042000000    -5.804000000
H     3.206000000    -0.720000000    -5.302000000
C     1.649000000     0.545000000    -4.513000000
C     2.418000000     1.416000000    -3.781000000
C     1.884000000     2.623000000    -3.270000000
H     2.410000000     3.210000000    -2.522000000
C     0.599000000     3.012000000    -3.636000000
O     0.052000000     4.003000000    -2.905000000
C    -0.775000000     3.646000000    -1.796000000
H    -0.540000000     2.613000000    -1.500000000
C    -0.405000000     4.463000000    -0.481000000
C    -1.259000000     4.510000000     0.590000000
H    -2.226000000     4.028000000     0.480000000
C     0.798000000     5.123000000    -0.338000000
H     1.590000000     5.088000000    -1.081000000
C     1.156000000     5.670000000     0.913000000
O     2.331000000     6.319000000     1.077000000
C     0.188000000     5.802000000     1.883000000
H     0.373000000     6.322000000     2.820000000
C    -0.967000000     5.121000000     1.772000000
O    -1.857000000     5.117000000     2.893000000
C    -3.114000000     4.945000000     2.701000000
C    -3.715000000     3.832000000     3.299000000
H    -3.179000000     3.076000000     3.868000000
C    -3.916000000     5.895000000     2.027000000
H    -3.406000000     6.793000000     1.688000000
C    -5.301000000     5.736000000     2.035000000
H    -5.920000000     6.474000000     1.533000000
C    -5.938000000     4.586000000     2.524000000
H    -7.005000000     4.436000000     2.380000000
C    -5.101000000     3.614000000     3.175000000
O    -5.566000000     2.457000000     3.769000000
C    -5.263000000     1.150000000     3.378000000
C    -5.135000000     0.090000000     4.297000000
H    -5.395000000     0.308000000     5.330000000
C    -4.772000000    -1.174000000     3.897000000
O    -4.751000000    -2.229000000     4.814000000
C    -4.105000000    -3.431000000     4.663000000
C    -2.689000000    -3.536000000     4.764000000
H    -2.017000000    -2.687000000     4.851000000
C    -4.905000000    -4.529000000     4.343000000
H    -5.970000000    -4.397000000     4.171000000
C    -4.270000000    -5.793000000     4.191000000
H    -4.894000000    -6.674000000     4.070000000
C    -2.885000000    -5.902000000     4.410000000
H    -2.382000000    -6.851000000     4.243000000
C    -2.119000000    -4.784000000     4.613000000
O    -0.830000000    -4.964000000     4.750000000
C     0.150000000    -4.802000000     3.817000000
C     1.517000000    -4.808000000     4.157000000
H     1.676000000    -4.796000000     5.232000000
C     2.482000000    -4.562000000     3.219000000
O     3.836000000    -4.371000000     3.571000000
C     4.835000000    -3.934000000     2.736000000
C     5.153000000    -2.595000000     2.700000000
H     4.656000000    -1.856000000     3.324000000
C     5.516000000    -4.909000000     1.993000000
H     5.256000000    -5.950000000     2.172000000
C     6.527000000    -4.411000000     1.109000000
H     6.996000000    -5.140000000     0.453000000
C     6.744000000    -2.995000000     0.950000000
H     7.335000000    -2.583000000     0.136000000
C     6.134000000    -2.123000000     1.855000000
O     6.416000000    -0.764000000     1.752000000
C     6.029000000     0.083000000     0.827000000
C     6.357000000     1.460000000     0.914000000
H     7.022000000     1.846000000     1.681000000
C     5.897000000     2.439000000    -0.025000000
O     6.271000000     3.762000000     0.104000000
C     5.456000000     4.895000000    -0.163000000
C     5.902000000     5.869000000    -1.110000000
H     6.876000000     5.758000000    -1.579000000
C     5.093000000     6.993000000    -1.319000000
H     5.429000000     7.732000000    -2.042000000
C     3.919000000     7.214000000    -0.524000000
H     3.400000000     8.158000000    -0.671000000
C     3.445000000     6.176000000     0.351000000
C     4.287000000     5.078000000     0.554000000
H     3.928000000     4.378000000     1.304000000
O     0.564000000     0.915000000     8.049000000
H     0.004000000     0.703000000     7.302000000
H     1.207000000     1.531000000     7.699000000
O     7.399000000    -0.865000000     5.047000000
H     6.781000000    -0.370000000     5.586000000
H     7.187000000    -1.782000000     5.220000000
O     4.132000000    -4.507000000     6.856000000
H     3.661000000    -5.309000000     6.632000000
H     3.568000000    -3.801000000     6.542000000
O    -2.963000000     1.243000000     6.569000000
H    -3.202000000     0.617000000     7.252000000
H    -2.188000000     0.861000000     6.155000000
O     2.224000000    -2.688000000     6.318000000
H     1.944000000    -1.901000000     5.851000000
H     1.408000000    -3.119000000     6.572000000
O     1.573000000     0.288000000    11.006000000
H     1.503000000     0.564000000    10.092000000
H     1.902000000    -0.609000000    10.960000000
O     4.021000000     2.755000000     3.654000000
H     3.954000000     1.848000000     3.953000000
H     4.963000000     2.920000000     3.601000000
O    -4.597000000     2.893000000     8.122000000
H    -4.379000000     2.287000000     8.831000000
H    -4.277000000     2.460000000     7.331000000
O     2.459000000     2.871000000     8.622000000
H     2.267000000     3.112000000     9.528000000
H     2.362000000     3.687000000     8.131000000
O    -0.465000000    -3.532000000     7.148000000
H    -0.999000000    -4.145000000     6.644000000
H    -1.008000000    -3.306000000     7.904000000
O    -1.579000000     4.803000000     7.401000000
H    -2.456000000     4.420000000     7.429000000
H    -1.176000000     4.421000000     6.621000000
O     1.482000000     7.360000000     4.628000000
H     0.541000000     7.511000000     4.722000000
H     1.582000000     6.413000000     4.718000000
O     5.251000000    -0.809000000     7.412000000
H     4.580000000    -0.802000000     8.095000000
H     6.068000000    -0.978000000     7.882000000
O     4.267000000     0.528000000     5.200000000
H     4.643000000    -0.112000000     5.804000000
H     3.326000000     0.352000000     5.220000000
O     2.733000000    -1.046000000     8.721000000
H     2.146000000    -0.402000000     8.326000000
H     2.727000000    -1.783000000     8.110000000
O     2.002000000     4.839000000     4.647000000
H     1.491000000     4.193000000     5.135000000
H     2.734000000     4.340000000     4.284000000
O    -0.349000000     3.599000000     5.316000000
H    -0.604000000     3.554000000     4.394000000
H    -0.154000000     2.693000000     5.555000000
O    -0.225000000     5.512000000     9.604000000
H     0.265000000     6.279000000     9.307000000
H    -0.661000000     5.186000000     8.817000000
O     4.855000000     2.189000000     7.322000000
H     4.658000000     2.037000000     6.398000000
H     4.006000000     2.376000000     7.721000000
