201
-1250.50221
C    -2.357000000    -1.960000000     3.043000000
H    -1.627000000    -2.530000000     2.474000000
C    -3.548000000    -1.524000000     2.416000000
C    -4.458000000    -0.715000000     3.077000000
H    -5.395000000    -0.427000000     2.607000000
C    -3.706000000    -1.790000000     0.963000000
O    -3.600000000    -3.189000000     0.704000000
H    -2.890000000    -1.228000000     0.487000000
O    -4.955000000    -1.384000000     0.438000000
C    -4.830000000    -0.718000000    -0.787000000
C    -4.801000000     0.648000000    -0.595000000
H    -5.032000000     1.170000000     0.330000000
C    -4.331000000     1.443000000    -1.612000000
O    -4.011000000     2.785000000    -1.322000000
C    -3.906000000     0.906000000    -2.842000000
C    -3.299000000     1.681000000    -3.896000000
H    -3.519000000     1.316000000    -4.901000000
C    -1.825000000     1.923000000    -3.870000000
C    -0.967000000     1.182000000    -4.718000000
H    -1.355000000     0.442000000    -5.413000000
H    -3.843000000     2.627000000    -3.901000000
C    -4.202000000    -0.426000000    -3.153000000
H    -3.797000000    -0.939000000    -4.021000000
C    -4.629000000    -1.234000000    -2.039000000
C    -4.554000000    -2.709000000    -2.146000000
H    -4.804000000    -3.059000000    -3.150000000
H    -5.298000000    -3.226000000    -1.537000000
C    -3.150000000    -3.247000000    -1.719000000
C    -2.223000000    -3.462000000    -2.709000000
H    -2.463000000    -3.236000000    -3.745000000
C    -2.820000000    -3.516000000    -0.381000000
C    -1.523000000    -4.010000000    -0.079000000
H    -1.192000000    -4.240000000     0.931000000
C    -0.662000000    -4.231000000    -1.067000000
O     0.558000000    -4.652000000    -0.613000000
C     1.775000000    -3.851000000    -0.613000000
C     2.753000000    -4.178000000     0.563000000
C     4.124000000    -4.016000000     0.426000000
H     4.576000000    -3.842000000    -0.547000000
C     2.228000000    -4.452000000     1.862000000
H     1.146000000    -4.459000000     1.957000000
O     2.471000000    -3.972000000    -1.919000000
H     1.362000000    -2.854000000    -0.400000000
C    -0.992000000    -4.008000000    -2.354000000
C     0.055000000    -4.261000000    -3.457000000
H    -0.530000000    -4.306000000    -4.378000000
H     0.568000000    -5.205000000    -3.262000000
C     1.003000000    -3.047000000    -3.572000000
C     0.704000000    -1.913000000    -4.416000000
H    -0.215000000    -1.914000000    -4.996000000
C     2.173000000    -2.987000000    -2.839000000
C     3.114000000    -1.919000000    -3.022000000
H     3.976000000    -1.822000000    -2.367000000
C     2.746000000    -0.821000000    -3.783000000
O     3.514000000     0.268000000    -3.562000000
C     2.909000000     1.236000000    -2.659000000
C     3.778000000     1.710000000    -1.532000000
C     4.764000000     0.924000000    -1.029000000
H     4.870000000    -0.081000000    -1.431000000
C     3.467000000     2.875000000    -0.871000000
H     2.633000000     3.440000000    -1.278000000
O     2.320000000     2.347000000    -3.342000000
H     2.132000000     0.727000000    -2.070000000
C     1.612000000    -0.848000000    -4.571000000
C     1.298000000     0.295000000    -5.525000000
H     0.707000000     0.039000000    -6.407000000
H     2.207000000     0.723000000    -5.952000000
C     0.463000000     1.351000000    -4.749000000
C     1.025000000     2.223000000    -3.762000000
C     0.177000000     2.967000000    -2.941000000
H     0.641000000     3.632000000    -2.218000000
C    -1.227000000     2.863000000    -3.004000000
O    -1.994000000     3.705000000    -2.223000000
C    -2.596000000     3.079000000    -1.049000000
H    -1.990000000     2.206000000    -0.768000000
C    -2.374000000     4.114000000     0.095000000
C    -3.355000000     4.198000000     1.072000000
H    -4.219000000     3.538000000     1.095000000
C    -1.222000000     4.885000000     0.141000000
H    -0.491000000     4.899000000    -0.663000000
C    -1.059000000     5.887000000     1.115000000
O     0.027000000     6.751000000     1.137000000
C    -1.965000000     5.845000000     2.210000000
H    -1.789000000     6.489000000     3.068000000
C    -3.106000000     5.060000000     2.155000000
O    -3.965000000     5.101000000     3.215000000
C    -4.864000000     4.101000000     3.489000000
C    -4.394000000     2.797000000     3.851000000
H    -3.315000000     2.666000000     3.882000000
C    -6.239000000     4.262000000     3.335000000
H    -6.702000000     5.221000000     3.118000000
C    -7.166000000     3.228000000     3.485000000
H    -8.211000000     3.269000000     3.188000000
C    -6.750000000     2.014000000     4.041000000
H    -7.452000000     1.223000000     4.291000000
C    -5.342000000     1.868000000     4.281000000
O    -4.866000000     0.764000000     4.988000000
C    -4.107000000    -0.261000000     4.367000000
C    -2.885000000    -0.661000000     4.967000000
H    -2.644000000    -0.255000000     5.946000000
C    -2.032000000    -1.489000000     4.265000000
O    -0.858000000    -1.782000000     4.806000000
C    -0.494000000    -3.097000000     5.047000000
C     0.836000000    -3.385000000     4.804000000
H     1.504000000    -2.579000000     4.510000000
C    -1.437000000    -4.120000000     5.217000000
H    -2.500000000    -3.909000000     5.304000000
C    -0.993000000    -5.450000000     5.106000000
H    -1.716000000    -6.258000000     5.175000000
C     0.367000000    -5.689000000     4.887000000
H     0.650000000    -6.733000000     4.785000000
C     1.325000000    -4.701000000     4.636000000
O     2.622000000    -4.922000000     4.291000000
C     3.060000000    -4.671000000     2.977000000
C     4.414000000    -4.504000000     2.799000000
H     5.102000000    -4.747000000     3.605000000
C     4.981000000    -4.217000000     1.494000000
O     6.320000000    -4.084000000     1.388000000
C     6.780000000    -3.010000000     0.647000000
C     6.352000000    -1.697000000     0.947000000
H     5.841000000    -1.460000000     1.876000000
C     7.531000000    -3.297000000    -0.527000000
H     7.663000000    -4.355000000    -0.735000000
C     7.889000000    -2.311000000    -1.413000000
H     8.385000000    -2.603000000    -2.335000000
C     7.671000000    -0.997000000    -1.020000000
H     8.100000000    -0.148000000    -1.545000000
C     6.879000000    -0.698000000     0.144000000
O     6.649000000     0.585000000     0.561000000
C     5.647000000     1.377000000    -0.024000000
C     5.467000000     2.631000000     0.510000000
H     6.054000000     2.885000000     1.388000000
C     4.314000000     3.334000000     0.131000000
O     4.050000000     4.566000000     0.775000000
C     3.276000000     5.540000000     0.241000000
C     3.456000000     6.062000000    -1.017000000
H     4.319000000     5.873000000    -1.651000000
C     2.493000000     6.895000000    -1.613000000
H     2.727000000     7.412000000    -2.540000000
C     1.281000000     7.133000000    -0.912000000
H     0.484000000     7.698000000    -1.387000000
C     1.130000000     6.532000000     0.386000000
C     2.180000000     5.792000000     0.983000000
H     2.012000000     5.308000000     1.942000000
O     2.179000000     3.235000000     7.683000000
H     2.173000000     2.874000000     6.796000000
H     3.105000000     3.269000000     7.922000000
O    -0.030000000     0.436000000     7.541000000
H     0.925000000     0.410000000     7.591000000
H    -0.220000000     0.487000000     6.604000000
O     6.820000000    -1.014000000     4.673000000
H     7.364000000    -0.324000000     5.052000000
H     7.377000000    -1.793000000     4.687000000
O    -1.079000000     2.557000000     5.726000000
H    -1.195000000     3.391000000     5.270000000
H    -0.146000000     2.364000000     5.639000000
O     3.669000000     5.008000000     4.401000000
H     3.907000000     4.347000000     3.751000000
H     3.746000000     4.556000000     5.241000000
O     0.911000000    -2.617000000     8.866000000
H     1.468000000    -2.791000000     8.108000000
H     1.521000000    -2.353000000     9.555000000
O     4.911000000     3.863000000     7.405000000
H     5.312000000     4.651000000     7.772000000
H     5.629000000     3.233000000     7.350000000
O     3.987000000    -1.888000000     4.911000000
H     3.525000000    -1.091000000     4.652000000
H     4.912000000    -1.685000000     4.768000000
O     4.287000000     2.331000000     3.581000000
H     4.257000000     1.754000000     2.818000000
H     3.887000000     1.818000000     4.284000000
O     4.572000000    -0.082000000     9.588000000
H     3.832000000    -0.106000000     8.982000000
H     5.236000000    -0.635000000     9.177000000
O     7.146000000     3.328000000     4.259000000
H     6.191000000     3.344000000     4.201000000
H     7.329000000     3.325000000     5.199000000
O     0.226000000     0.393000000    10.697000000
H     0.251000000    -0.430000000    10.209000000
H     0.134000000     1.068000000    10.024000000
O    -0.130000000     4.679000000     4.350000000
H     0.502000000     4.046000000     4.010000000
H     0.404000000     5.416000000     4.646000000
O    -3.373000000     3.293000000     7.049000000
H    -3.856000000     2.598000000     7.495000000
H    -2.586000000     2.861000000     6.715000000
O     1.144000000     6.748000000     5.229000000
H     1.250000000     7.291000000     6.010000000
H     1.949000000     6.886000000     4.730000000
O    -1.768000000    -1.628000000     8.519000000
H    -1.592000000    -0.746000000     8.190000000
H    -0.932000000    -2.086000000     8.437000000
O    -0.374000000     3.333000000     8.822000000
H     0.580000000     3.268000000     8.776000000
H    -0.689000000     2.700000000     8.177000000
O     3.180000000    -2.620000000     7.274000000
H     3.572000000    -3.464000000     7.498000000
H     3.448000000    -2.464000000     6.368000000
O     2.782000000     0.004000000     7.614000000
H     3.065000000     0.474000000     6.830000000
H     2.578000000    -0.879000000     7.304000000
