201
-1235.52287
C    -3.012000000    -1.983000000     3.388000000
H    -2.457000000    -2.908000000     3.256000000
C    -3.833000000    -1.405000000     2.405000000
C    -4.410000000    -0.135000000     2.681000000
H    -4.944000000     0.439000000     1.927000000
C    -3.819000000    -1.821000000     0.981000000
O    -3.604000000    -3.257000000     0.888000000
H    -2.923000000    -1.343000000     0.557000000
O    -4.959000000    -1.386000000     0.168000000
C    -4.574000000    -0.886000000    -1.033000000
C    -4.576000000     0.487000000    -1.189000000
H    -5.040000000     1.147000000    -0.461000000
C    -3.905000000     1.033000000    -2.296000000
O    -3.692000000     2.371000000    -2.257000000
C    -3.481000000     0.250000000    -3.355000000
C    -2.888000000     0.882000000    -4.562000000
H    -3.154000000     0.177000000    -5.353000000
C    -1.378000000     1.170000000    -4.422000000
C    -0.513000000     0.207000000    -4.887000000
H    -0.973000000    -0.746000000    -5.137000000
H    -3.393000000     1.823000000    -4.789000000
C    -3.662000000    -1.140000000    -3.245000000
H    -3.329000000    -1.716000000    -4.106000000
C    -4.257000000    -1.691000000    -2.082000000
C    -4.234000000    -3.219000000    -1.930000000
H    -4.366000000    -3.683000000    -2.909000000
H    -5.107000000    -3.528000000    -1.352000000
C    -2.932000000    -3.694000000    -1.347000000
C    -1.915000000    -4.122000000    -2.209000000
H    -2.148000000    -4.102000000    -3.270000000
C    -2.657000000    -3.737000000     0.023000000
C    -1.464000000    -4.166000000     0.562000000
H    -1.252000000    -4.190000000     1.627000000
C    -0.456000000    -4.556000000    -0.323000000
O     0.776000000    -4.863000000     0.244000000
C     1.852000000    -3.890000000     0.145000000
C     2.412000000    -3.668000000     1.479000000
C     3.573000000    -2.890000000     1.607000000
H     4.026000000    -2.585000000     0.667000000
C     1.812000000    -4.204000000     2.643000000
H     0.955000000    -4.871000000     2.700000000
O     2.767000000    -4.247000000    -0.852000000
H     1.540000000    -2.864000000    -0.098000000
C    -0.675000000    -4.508000000    -1.683000000
C     0.577000000    -4.803000000    -2.546000000
H     0.113000000    -4.990000000    -3.516000000
H     1.151000000    -5.592000000    -2.054000000
C     1.545000000    -3.688000000    -2.822000000
C     1.204000000    -2.812000000    -3.829000000
H     0.320000000    -2.906000000    -4.456000000
C     2.669000000    -3.514000000    -2.030000000
C     3.516000000    -2.380000000    -2.192000000
H     4.367000000    -2.176000000    -1.547000000
C     3.116000000    -1.409000000    -3.153000000
O     3.837000000    -0.210000000    -3.311000000
C     3.257000000     1.048000000    -2.844000000
C     4.243000000     1.901000000    -2.006000000
C     5.317000000     1.226000000    -1.399000000
H     5.273000000     0.140000000    -1.372000000
C     4.030000000     3.224000000    -1.629000000
H     3.092000000     3.664000000    -1.955000000
O     2.697000000     1.858000000    -3.940000000
H     2.400000000     0.757000000    -2.219000000
C     2.021000000    -1.626000000    -3.936000000
C     1.698000000    -0.740000000    -5.152000000
H     1.219000000    -1.316000000    -5.947000000
H     2.615000000    -0.363000000    -5.609000000
C     0.834000000     0.398000000    -4.767000000
C     1.367000000     1.599000000    -4.247000000
C     0.466000000     2.579000000    -3.841000000
H     0.812000000     3.496000000    -3.370000000
C    -0.913000000     2.371000000    -3.920000000
O    -1.734000000     3.297000000    -3.187000000
C    -2.351000000     2.848000000    -1.967000000
H    -1.941000000     1.935000000    -1.510000000
C    -2.330000000     3.951000000    -0.962000000
C    -3.397000000     4.204000000    -0.088000000
H    -4.319000000     3.634000000    -0.166000000
C    -1.180000000     4.721000000    -0.790000000
H    -0.378000000     4.422000000    -1.459000000
C    -1.011000000     5.633000000     0.252000000
O     0.140000000     6.266000000     0.598000000
C    -2.102000000     5.843000000     1.101000000
H    -2.147000000     6.696000000     1.774000000
C    -3.221000000     5.111000000     0.949000000
O    -4.347000000     5.289000000     1.732000000
C    -5.203000000     4.361000000     2.203000000
C    -4.732000000     3.329000000     2.979000000
H    -3.683000000     3.424000000     3.245000000
C    -6.553000000     4.533000000     2.059000000
H    -6.888000000     5.393000000     1.485000000
C    -7.462000000     3.659000000     2.540000000
H    -8.522000000     3.640000000     2.301000000
C    -6.979000000     2.601000000     3.359000000
H    -7.803000000     2.056000000     3.811000000
C    -5.599000000     2.390000000     3.533000000
O    -5.225000000     1.377000000     4.423000000
C    -4.478000000     0.280000000     4.006000000
C    -3.712000000    -0.374000000     5.017000000
H    -3.670000000    -0.083000000     6.063000000
C    -2.912000000    -1.427000000     4.711000000
O    -2.177000000    -1.966000000     5.743000000
C    -1.538000000    -3.178000000     5.670000000
C    -0.084000000    -3.209000000     5.481000000
H     0.477000000    -2.294000000     5.310000000
C    -2.212000000    -4.342000000     5.901000000
H    -3.282000000    -4.441000000     6.060000000
C    -1.525000000    -5.558000000     5.845000000
H    -2.085000000    -6.489000000     5.892000000
C    -0.152000000    -5.571000000     5.730000000
H     0.388000000    -6.508000000     5.842000000
C     0.576000000    -4.411000000     5.448000000
O     1.911000000    -4.432000000     5.083000000
C     2.378000000    -3.822000000     3.892000000
C     3.504000000    -3.048000000     3.974000000
H     3.953000000    -2.859000000     4.946000000
C     4.134000000    -2.544000000     2.884000000
O     5.315000000    -1.892000000     2.957000000
C     6.157000000    -1.650000000     1.909000000
C     6.331000000    -0.328000000     1.528000000
H     5.855000000     0.520000000     2.014000000
C     6.934000000    -2.649000000     1.293000000
H     6.844000000    -3.652000000     1.701000000
C     7.772000000    -2.327000000     0.306000000
H     8.376000000    -3.137000000    -0.094000000
C     7.910000000    -1.013000000    -0.088000000
H     8.611000000    -0.745000000    -0.875000000
C     7.162000000     0.004000000     0.477000000
O     7.312000000     1.255000000    -0.027000000
C     6.263000000     1.928000000    -0.655000000
C     6.144000000     3.255000000    -0.450000000
H     6.901000000     3.769000000     0.137000000
C     4.997000000     3.957000000    -0.890000000
O     4.833000000     5.276000000    -0.519000000
C     3.614000000     5.836000000    -0.766000000
C     3.438000000     6.573000000    -1.945000000
H     4.288000000     6.606000000    -2.623000000
C     2.199000000     7.103000000    -2.353000000
H     2.002000000     7.428000000    -3.371000000
C     1.162000000     7.092000000    -1.495000000
H     0.181000000     7.366000000    -1.873000000
C     1.261000000     6.446000000    -0.256000000
C     2.473000000     5.741000000     0.062000000
H     2.604000000     5.118000000     0.943000000
O     5.759000000     3.983000000     2.488000000
H     5.792000000     4.940000000     2.509000000
H     4.855000000     3.781000000     2.247000000
O     0.634000000     4.823000000     8.178000000
H     1.123000000     4.877000000     7.357000000
H     0.974000000     4.039000000     8.608000000
O     2.810000000     6.336000000     3.417000000
H     2.879000000     5.396000000     3.254000000
H     1.879000000     6.483000000     3.582000000
O     0.804000000     0.452000000     5.376000000
H     0.516000000     0.944000000     4.607000000
H     1.656000000     0.094000000     5.127000000
O    -2.501000000     6.344000000     6.090000000
H    -2.570000000     6.857000000     5.284000000
H    -2.357000000     5.446000000     5.790000000
O     3.515000000     7.929000000     5.830000000
H     3.257000000     7.552000000     4.989000000
H     4.370000000     8.327000000     5.662000000
O     5.840000000     5.479000000     5.674000000
H     5.523000000     6.348000000     5.427000000
H     5.155000000     4.881000000     5.375000000
O     3.368000000     0.209000000     4.461000000
H     3.309000000     0.052000000     3.519000000
H     4.275000000     0.478000000     4.603000000
O     4.515000000     2.968000000     5.253000000
H     5.147000000     2.263000000     5.114000000
H     4.118000000     3.107000000     4.393000000
O     0.409000000     6.847000000     4.361000000
H     0.334000000     5.945000000     4.675000000
H    -0.475000000     7.074000000     4.074000000
O     7.545000000     2.985000000     5.849000000
H     6.896000000     3.681000000     5.957000000
H     8.132000000     3.087000000     6.598000000
O     8.618000000     4.327000000     3.539000000
H     7.713000000     4.208000000     3.250000000
H     8.765000000     3.617000000     4.164000000
O    -0.857000000     9.050000000     1.283000000
H    -0.349000000     8.239000000     1.267000000
H    -0.325000000     9.656000000     1.798000000
O    -1.738000000     4.062000000     4.759000000
H    -1.439000000     3.540000000     5.503000000
H    -0.978000000     4.110000000     4.179000000
O     3.618000000    -0.915000000     7.008000000
H     4.313000000    -1.432000000     6.602000000
H     3.352000000    -0.295000000     6.329000000
O     5.307000000     6.917000000     2.268000000
H     5.256000000     7.432000000     1.464000000
H     4.400000000     6.672000000     2.454000000
O     6.045000000     0.722000000     5.108000000
H     6.421000000    -0.126000000     5.345000000
H     6.712000000     1.359000000     5.364000000
O     2.039000000     4.449000000     6.064000000
H     1.688000000     4.485000000     5.174000000
H     2.791000000     3.861000000     6.002000000
O    -0.380000000    -0.504000000     7.683000000
H     0.033000000     0.047000000     7.018000000
H    -1.150000000    -0.869000000     7.249000000
