201
-1240.99137
C    -3.013000000    -2.612000000     3.191000000
H    -2.522000000    -3.415000000     2.647000000
C    -3.583000000    -1.507000000     2.544000000
C    -4.049000000    -0.430000000     3.228000000
H    -4.455000000     0.436000000     2.712000000
C    -3.774000000    -1.619000000     1.062000000
O    -3.875000000    -2.975000000     0.530000000
H    -2.862000000    -1.206000000     0.604000000
O    -4.848000000    -0.896000000     0.477000000
C    -4.501000000    -0.009000000    -0.536000000
C    -4.134000000     1.281000000    -0.248000000
H    -4.199000000     1.606000000     0.787000000
C    -3.618000000     2.020000000    -1.298000000
O    -3.324000000     3.374000000    -1.023000000
C    -3.558000000     1.569000000    -2.627000000
C    -3.081000000     2.546000000    -3.692000000
H    -3.491000000     2.276000000    -4.667000000
C    -1.576000000     2.559000000    -3.782000000
C    -0.995000000     1.574000000    -4.605000000
H    -1.703000000     1.000000000    -5.197000000
H    -3.338000000     3.579000000    -3.451000000
C    -3.951000000     0.311000000    -2.903000000
H    -3.859000000    -0.096000000    -3.907000000
C    -4.357000000    -0.513000000    -1.860000000
C    -4.661000000    -1.992000000    -2.146000000
H    -5.091000000    -2.161000000    -3.135000000
H    -5.471000000    -2.327000000    -1.495000000
C    -3.385000000    -2.878000000    -1.842000000
C    -2.598000000    -3.289000000    -2.962000000
H    -2.862000000    -2.974000000    -3.968000000
C    -3.049000000    -3.276000000    -0.515000000
C    -1.977000000    -4.094000000    -0.351000000
H    -1.722000000    -4.441000000     0.647000000
C    -1.206000000    -4.480000000    -1.440000000
O     0.008000000    -5.050000000    -1.053000000
C     1.055000000    -4.068000000    -1.021000000
C     1.893000000    -4.362000000     0.212000000
C     3.290000000    -4.168000000     0.257000000
H     3.825000000    -3.833000000    -0.628000000
C     1.345000000    -4.763000000     1.417000000
H     0.274000000    -4.943000000     1.472000000
O     1.828000000    -4.127000000    -2.290000000
H     0.654000000    -3.053000000    -0.886000000
C    -1.455000000    -4.062000000    -2.726000000
C    -0.536000000    -4.149000000    -3.898000000
H    -1.174000000    -4.103000000    -4.783000000
H    -0.092000000    -5.145000000    -3.950000000
C     0.565000000    -2.981000000    -3.971000000
C     0.381000000    -1.862000000    -4.824000000
H    -0.590000000    -1.696000000    -5.282000000
C     1.708000000    -3.061000000    -3.185000000
C     2.686000000    -2.048000000    -3.214000000
H     3.533000000    -2.087000000    -2.534000000
C     2.420000000    -0.950000000    -4.015000000
O     3.362000000     0.042000000    -3.897000000
C     2.979000000     1.242000000    -3.111000000
C     3.926000000     1.720000000    -2.002000000
C     4.660000000     0.782000000    -1.291000000
H     4.525000000    -0.285000000    -1.444000000
C     4.025000000     3.111000000    -1.799000000
H     3.555000000     3.944000000    -2.315000000
O     2.515000000     2.322000000    -3.969000000
H     2.038000000     0.958000000    -2.618000000
C     1.314000000    -0.838000000    -4.879000000
C     1.084000000     0.519000000    -5.618000000
H     0.436000000     0.320000000    -6.474000000
H     1.999000000     0.928000000    -6.052000000
C     0.383000000     1.552000000    -4.711000000
C     1.123000000     2.427000000    -3.939000000
C     0.591000000     3.236000000    -2.992000000
H     1.229000000     3.795000000    -2.312000000
C    -0.774000000     3.431000000    -3.005000000
O    -1.387000000     4.229000000    -2.012000000
C    -1.944000000     3.624000000    -0.802000000
H    -1.446000000     2.658000000    -0.632000000
C    -1.616000000     4.411000000     0.473000000
C    -2.268000000     4.254000000     1.717000000
H    -3.019000000     3.472000000     1.786000000
C    -0.518000000     5.270000000     0.457000000
H     0.084000000     5.299000000    -0.447000000
C    -0.118000000     5.908000000     1.603000000
O     0.977000000     6.733000000     1.668000000
C    -0.830000000     5.771000000     2.762000000
H    -0.461000000     6.315000000     3.628000000
C    -1.932000000     4.962000000     2.860000000
O    -2.602000000     4.842000000     4.049000000
C    -3.692000000     4.031000000     4.266000000
C    -3.484000000     2.702000000     4.645000000
H    -2.493000000     2.261000000     4.708000000
C    -5.017000000     4.553000000     4.177000000
H    -5.121000000     5.623000000     4.015000000
C    -6.140000000     3.666000000     4.348000000
H    -7.129000000     4.095000000     4.206000000
C    -5.838000000     2.335000000     4.649000000
H    -6.647000000     1.621000000     4.779000000
C    -4.554000000     1.884000000     4.885000000
O    -4.419000000     0.627000000     5.366000000
C    -3.903000000    -0.456000000     4.593000000
C    -3.499000000    -1.601000000     5.274000000
H    -3.565000000    -1.663000000     6.357000000
C    -3.112000000    -2.734000000     4.537000000
O    -2.603000000    -3.911000000     5.182000000
C    -1.876000000    -4.937000000     4.681000000
C    -0.493000000    -4.717000000     4.334000000
H    -0.004000000    -3.761000000     4.503000000
C    -2.465000000    -6.201000000     4.505000000
H    -3.501000000    -6.298000000     4.820000000
C    -1.746000000    -7.258000000     3.983000000
H    -2.155000000    -8.251000000     3.818000000
C    -0.416000000    -7.032000000     3.775000000
H     0.113000000    -7.911000000     3.416000000
C     0.226000000    -5.794000000     3.873000000
O     1.579000000    -5.726000000     3.606000000
C     2.153000000    -5.088000000     2.534000000
C     3.515000000    -4.930000000     2.496000000
H     4.129000000    -5.297000000     3.314000000
C     4.086000000    -4.451000000     1.350000000
O     5.474000000    -4.361000000     1.258000000
C     6.051000000    -3.297000000     0.587000000
C     5.702000000    -1.987000000     0.974000000
H     4.907000000    -1.839000000     1.700000000
C     7.041000000    -3.522000000    -0.396000000
H     7.353000000    -4.476000000    -0.813000000
C     7.734000000    -2.429000000    -0.879000000
H     8.377000000    -2.517000000    -1.751000000
C     7.461000000    -1.141000000    -0.481000000
H     7.917000000    -0.296000000    -0.989000000
C     6.398000000    -0.923000000     0.430000000
O     6.042000000     0.360000000     0.754000000
C     5.435000000     1.231000000    -0.179000000
C     5.509000000     2.642000000     0.075000000
H     6.045000000     2.926000000     0.977000000
C     4.822000000     3.567000000    -0.717000000
O     4.997000000     4.949000000    -0.474000000
C     3.996000000     5.914000000    -0.397000000
C     4.219000000     7.244000000    -0.901000000
H     5.115000000     7.482000000    -1.469000000
C     3.384000000     8.287000000    -0.638000000
H     3.540000000     9.181000000    -1.237000000
C     2.357000000     8.092000000     0.286000000
H     1.621000000     8.872000000     0.466000000
C     2.082000000     6.828000000     0.821000000
C     2.868000000     5.700000000     0.413000000
H     2.827000000     4.780000000     0.989000000
O     3.041000000    -5.147000000     5.952000000
H     2.843000000    -4.283000000     6.313000000
H     2.323000000    -5.324000000     5.344000000
O    -2.742000000     1.682000000     8.214000000
H    -1.811000000     1.541000000     8.045000000
H    -3.036000000     0.869000000     8.626000000
O     1.434000000     3.758000000    10.105000000
H     2.073000000     3.231000000     9.625000000
H     0.939000000     4.213000000     9.424000000
O     3.463000000    -0.093000000     7.147000000
H     2.893000000    -0.066000000     6.378000000
H     3.781000000     0.805000000     7.240000000
O    -0.603000000    -1.338000000     6.427000000
H     0.143000000    -1.122000000     5.868000000
H    -0.696000000    -0.582000000     7.006000000
O     0.560000000     5.258000000     8.142000000
H     0.011000000     6.042000000     8.155000000
H     0.481000000     4.925000000     7.248000000
O     2.862000000     2.764000000     7.337000000
H     2.440000000     2.480000000     6.526000000
H     2.331000000     3.502000000     7.637000000
O     3.387000000    -1.441000000    10.065000000
H     3.481000000    -0.502000000    10.226000000
H     3.751000000    -1.572000000     9.190000000
O     2.212000000    -2.641000000     6.733000000
H     2.762000000    -1.920000000     7.039000000
H     1.333000000    -2.266000000     6.678000000
O     0.132000000     3.923000000     5.969000000
H    -0.735000000     3.686000000     5.638000000
H     0.693000000     3.190000000     5.717000000
O    -2.015000000    -2.989000000     8.081000000
H    -1.640000000    -3.869000000     8.123000000
H    -1.487000000    -2.535000000     7.425000000
O     3.720000000     4.081000000     4.443000000
H     2.955000000     3.544000000     4.648000000
H     4.213000000     3.561000000     3.807000000
O     5.422000000     3.099000000     6.660000000
H     4.476000000     3.191000000     6.773000000
H     5.799000000     3.714000000     7.290000000
O     6.471000000     2.878000000     4.256000000
H     6.141000000     2.904000000     5.155000000
H     5.935000000     2.213000000     3.824000000
O     3.563000000     6.009000000     6.340000000
H     2.930000000     6.437000000     5.763000000
H     4.025000000     5.392000000     5.773000000
O     6.365000000    -1.205000000     5.260000000
H     5.600000000    -0.677000000     5.033000000
H     6.022000000    -2.093000000     5.362000000
O     4.659000000     1.227000000     2.962000000
H     4.994000000     1.014000000     2.092000000
H     4.221000000     0.427000000     3.253000000
O     0.358000000     0.742000000     8.419000000
H     1.314000000     0.714000000     8.435000000
H     0.089000000     0.179000000     9.145000000
O     3.837000000    -1.422000000     4.110000000
H     4.119000000    -2.216000000     4.564000000
H     2.964000000    -1.244000000     4.459000000
