201
-1242.03012
C    -3.772000000    -2.835000000     2.887000000
H    -3.546000000    -3.852000000     2.574000000
C    -3.965000000    -1.720000000     2.048000000
C    -3.998000000    -0.408000000     2.619000000
H    -4.147000000     0.448000000     1.966000000
C    -3.896000000    -1.786000000     0.513000000
O    -4.081000000    -3.152000000     0.142000000
H    -2.883000000    -1.544000000     0.160000000
O    -4.828000000    -0.888000000    -0.153000000
C    -4.435000000    -0.158000000    -1.258000000
C    -4.059000000     1.130000000    -1.174000000
H    -4.393000000     1.766000000    -0.359000000
C    -3.375000000     1.801000000    -2.204000000
O    -3.144000000     3.178000000    -1.986000000
C    -3.227000000     1.129000000    -3.464000000
C    -2.650000000     2.025000000    -4.618000000
H    -2.890000000     1.660000000    -5.619000000
C    -1.127000000     2.187000000    -4.500000000
C    -0.355000000     1.169000000    -5.136000000
H    -0.864000000     0.327000000    -5.600000000
H    -3.174000000     2.976000000    -4.503000000
C    -3.583000000    -0.208000000    -3.478000000
H    -3.396000000    -0.686000000    -4.437000000
C    -4.075000000    -0.896000000    -2.365000000
C    -4.363000000    -2.393000000    -2.546000000
H    -4.703000000    -2.582000000    -3.566000000
H    -5.214000000    -2.706000000    -1.938000000
C    -3.175000000    -3.222000000    -2.177000000
C    -2.161000000    -3.662000000    -3.094000000
H    -2.295000000    -3.530000000    -4.165000000
C    -3.066000000    -3.553000000    -0.786000000
C    -1.931000000    -4.243000000    -0.307000000
H    -1.928000000    -4.639000000     0.706000000
C    -0.925000000    -4.576000000    -1.208000000
O     0.243000000    -4.987000000    -0.710000000
C     1.187000000    -4.028000000    -0.257000000
C     1.641000000    -4.148000000     1.183000000
C     2.772000000    -3.422000000     1.582000000
H     3.249000000    -2.751000000     0.873000000
C     1.012000000    -5.045000000     2.039000000
H     0.298000000    -5.755000000     1.629000000
O     2.291000000    -3.976000000    -1.172000000
H     0.692000000    -3.053000000    -0.373000000
C    -1.010000000    -4.308000000    -2.575000000
C     0.260000000    -4.501000000    -3.360000000
H    -0.016000000    -4.781000000    -4.378000000
H     0.817000000    -5.326000000    -2.911000000
C     1.253000000    -3.262000000    -3.316000000
C     1.106000000    -2.272000000    -4.283000000
H     0.352000000    -2.435000000    -5.048000000
C     2.207000000    -3.137000000    -2.290000000
C     3.036000000    -2.006000000    -2.349000000
H     3.774000000    -1.872000000    -1.562000000
C     2.883000000    -1.010000000    -3.277000000
O     3.817000000    -0.002000000    -3.174000000
C     3.308000000     1.302000000    -2.609000000
C     4.194000000     1.957000000    -1.620000000
C     4.916000000     1.102000000    -0.805000000
H     4.951000000     0.046000000    -1.057000000
C     4.044000000     3.319000000    -1.298000000
H     3.347000000     3.976000000    -1.811000000
O     2.985000000     2.176000000    -3.716000000
H     2.427000000     1.067000000    -1.994000000
C     1.890000000    -1.128000000    -4.287000000
C     1.800000000    -0.034000000    -5.401000000
H     1.425000000    -0.468000000    -6.330000000
H     2.773000000     0.362000000    -5.697000000
C     1.021000000     1.129000000    -4.927000000
C     1.650000000     2.129000000    -4.133000000
C     0.914000000     3.247000000    -3.663000000
H     1.318000000     4.043000000    -3.042000000
C    -0.468000000     3.195000000    -3.819000000
O    -1.215000000     4.078000000    -3.038000000
C    -1.753000000     3.617000000    -1.766000000
H    -1.126000000     2.726000000    -1.612000000
C    -1.446000000     4.519000000    -0.563000000
C    -2.285000000     4.481000000     0.580000000
H    -3.080000000     3.740000000     0.548000000
C    -0.326000000     5.432000000    -0.547000000
H     0.246000000     5.573000000    -1.460000000
C    -0.214000000     6.339000000     0.566000000
O     0.672000000     7.384000000     0.469000000
C    -1.020000000     6.210000000     1.706000000
H    -0.883000000     6.829000000     2.589000000
C    -2.018000000     5.195000000     1.730000000
O    -2.749000000     5.077000000     2.885000000
C    -3.741000000     4.201000000     3.196000000
C    -3.425000000     2.950000000     3.778000000
H    -2.370000000     2.751000000     3.947000000
C    -5.097000000     4.577000000     3.057000000
H    -5.224000000     5.605000000     2.729000000
C    -6.077000000     3.711000000     3.492000000
H    -7.115000000     3.990000000     3.329000000
C    -5.776000000     2.465000000     4.053000000
H    -6.550000000     1.828000000     4.473000000
C    -4.453000000     2.080000000     4.126000000
O    -4.094000000     0.874000000     4.676000000
C    -3.867000000    -0.361000000     4.007000000
C    -3.737000000    -1.435000000     4.853000000
H    -3.578000000    -1.234000000     5.910000000
C    -3.627000000    -2.698000000     4.250000000
O    -3.458000000    -3.766000000     5.086000000
C    -2.720000000    -4.906000000     4.842000000
C    -1.337000000    -4.824000000     4.506000000
H    -0.807000000    -3.917000000     4.228000000
C    -3.249000000    -6.138000000     5.128000000
H    -4.274000000    -6.245000000     5.475000000
C    -2.480000000    -7.284000000     5.196000000
H    -3.025000000    -8.221000000     5.275000000
C    -1.155000000    -7.252000000     4.872000000
H    -0.555000000    -8.153000000     4.779000000
C    -0.598000000    -6.047000000     4.494000000
O     0.733000000    -5.966000000     4.299000000
C     1.460000000    -5.170000000     3.396000000
C     2.573000000    -4.367000000     3.772000000
H     2.946000000    -4.428000000     4.792000000
C     3.215000000    -3.530000000     2.881000000
O     4.259000000    -2.711000000     3.318000000
C     5.330000000    -2.312000000     2.605000000
C     5.404000000    -0.946000000     2.281000000
H     4.656000000    -0.266000000     2.680000000
C     6.037000000    -3.220000000     1.854000000
H     5.906000000    -4.297000000     1.929000000
C     6.947000000    -2.772000000     0.910000000
H     7.503000000    -3.392000000     0.212000000
C     7.169000000    -1.394000000     0.712000000
H     7.883000000    -1.003000000    -0.009000000
C     6.340000000    -0.482000000     1.385000000
O     6.443000000     0.865000000     1.160000000
C     5.672000000     1.621000000     0.270000000
C     5.684000000     2.986000000     0.500000000
H     6.240000000     3.422000000     1.326000000
C     4.905000000     3.833000000    -0.283000000
O     4.931000000     5.169000000     0.035000000
C     4.048000000     6.097000000    -0.341000000
C     4.473000000     7.062000000    -1.272000000
H     5.444000000     7.025000000    -1.758000000
C     3.535000000     8.017000000    -1.737000000
H     3.813000000     8.684000000    -2.550000000
C     2.332000000     8.150000000    -1.056000000
H     1.570000000     8.862000000    -1.363000000
C     1.976000000     7.278000000    -0.077000000
C     2.803000000     6.149000000     0.212000000
H     2.621000000     5.423000000     1.000000000
O     5.430000000    -2.868000000     6.002000000
H     5.212000000    -2.737000000     5.079000000
H     6.347000000    -3.143000000     5.995000000
O     2.416000000     0.050000000     6.828000000
H     1.814000000     0.464000000     6.209000000
H     3.287000000     0.271000000     6.499000000
O     3.518000000     7.160000000     3.432000000
H     3.022000000     7.978000000     3.467000000
H     2.851000000     6.475000000     3.468000000
O     2.167000000     5.719000000     8.194000000
H     2.149000000     4.765000000     8.278000000
H     2.854000000     5.889000000     7.549000000
O    -0.007000000     7.321000000     8.250000000
H    -0.722000000     6.903000000     8.731000000
H     0.689000000     6.665000000     8.238000000
O     0.083000000     6.701000000     5.265000000
H    -0.496000000     7.391000000     4.942000000
H    -0.507000000     6.050000000     5.644000000
O     4.568000000     1.063000000     5.461000000
H     4.466000000     1.509000000     4.620000000
H     5.505000000     1.115000000     5.648000000
O    -0.061000000    -0.944000000     7.091000000
H     0.807000000    -0.975000000     7.494000000
H     0.023000000    -0.296000000     6.391000000
O    -0.275000000     2.866000000     9.861000000
H     0.413000000     3.321000000    10.347000000
H     0.060000000     1.976000000     9.748000000
O     1.630000000     5.230000000     3.403000000
H     1.677000000     4.329000000     3.724000000
H     1.236000000     5.720000000     4.124000000
O    -1.734000000     4.758000000     6.113000000
H    -2.319000000     4.931000000     6.851000000
H    -1.836000000     3.822000000     5.940000000
O    -1.403000000    -3.105000000     7.587000000
H    -2.248000000    -3.287000000     7.174000000
H    -0.979000000    -2.479000000     7.000000000
O     2.430000000     1.049000000     9.724000000
H     2.254000000     1.013000000     8.784000000
H     3.383000000     1.111000000     9.788000000
O     3.318000000    -2.555000000     7.486000000
H     3.016000000    -1.678000000     7.251000000
H     4.004000000    -2.752000000     6.848000000
O    -1.341000000     2.248000000     7.029000000
H    -0.721000000     1.921000000     6.377000000
H    -0.807000000     2.414000000     7.805000000
O    -2.301000000     0.127000000     8.240000000
H    -1.645000000    -0.560000000     8.125000000
H    -2.013000000     0.833000000     7.662000000
O     6.634000000     3.533000000     4.769000000
H     5.783000000     3.514000000     4.331000000
H     6.976000000     2.645000000     4.666000000
O     4.117000000     3.742000000     4.019000000
H     3.777000000     4.626000000     4.158000000
H     3.341000000     3.183000000     4.020000000
O     2.489000000     3.173000000     6.933000000
H     1.963000000     3.082000000     6.138000000
H     3.339000000     2.800000000     6.702000000
