201
-1272.05039
C    -4.361000000    -2.277000000     2.189000000
H    -4.305000000    -3.249000000     1.706000000
C    -4.261000000    -1.109000000     1.435000000
C    -4.175000000     0.176000000     2.008000000
H    -3.975000000     1.057000000     1.404000000
C    -3.944000000    -1.179000000    -0.043000000
O    -4.138000000    -2.584000000    -0.581000000
H    -2.870000000    -0.943000000    -0.065000000
O    -4.752000000    -0.303000000    -0.830000000
C    -4.120000000     0.367000000    -1.839000000
C    -3.732000000     1.672000000    -1.596000000
H    -3.989000000     2.219000000    -0.692000000
C    -2.913000000     2.345000000    -2.517000000
O    -2.550000000     3.669000000    -2.192000000
C    -2.570000000     1.823000000    -3.740000000
C    -1.608000000     2.544000000    -4.676000000
H    -1.771000000     2.268000000    -5.720000000
C    -0.207000000     2.340000000    -4.261000000
C     0.545000000     1.357000000    -4.917000000
H     0.148000000     0.726000000    -5.709000000
H    -1.832000000     3.611000000    -4.730000000
C    -2.997000000     0.521000000    -4.054000000
H    -2.682000000    -0.044000000    -4.927000000
C    -3.750000000    -0.236000000    -3.095000000
C    -4.066000000    -1.683000000    -3.432000000
H    -4.222000000    -1.942000000    -4.482000000
H    -5.070000000    -1.834000000    -3.029000000
C    -3.077000000    -2.697000000    -2.767000000
C    -1.942000000    -3.143000000    -3.524000000
H    -1.830000000    -2.766000000    -4.537000000
C    -3.229000000    -3.142000000    -1.450000000
C    -2.321000000    -4.025000000    -0.845000000
H    -2.413000000    -4.306000000     0.201000000
C    -1.205000000    -4.480000000    -1.624000000
O    -0.171000000    -5.151000000    -0.995000000
C     0.832000000    -4.216000000    -0.501000000
C     1.181000000    -4.397000000     0.963000000
C     2.258000000    -3.654000000     1.466000000
H     2.820000000    -2.981000000     0.823000000
C     0.280000000    -5.005000000     1.871000000
H    -0.593000000    -5.530000000     1.490000000
O     1.953000000    -4.285000000    -1.391000000
H     0.483000000    -3.178000000    -0.602000000
C    -1.041000000    -3.996000000    -2.921000000
C     0.178000000    -4.309000000    -3.768000000
H    -0.128000000    -4.185000000    -4.809000000
H     0.716000000    -5.249000000    -3.627000000
C     1.304000000    -3.271000000    -3.557000000
C     1.535000000    -2.201000000    -4.491000000
H     0.903000000    -2.072000000    -5.366000000
C     2.149000000    -3.378000000    -2.453000000
C     3.154000000    -2.422000000    -2.274000000
H     3.905000000    -2.467000000    -1.490000000
C     3.366000000    -1.413000000    -3.145000000
O     4.368000000    -0.476000000    -2.798000000
C     3.794000000     0.602000000    -2.097000000
C     4.607000000     1.022000000    -0.828000000
C     5.624000000     0.300000000    -0.328000000
H     5.903000000    -0.668000000    -0.736000000
C     4.258000000     2.187000000    -0.182000000
H     3.411000000     2.763000000    -0.546000000
O     3.670000000     1.769000000    -3.008000000
H     2.761000000     0.466000000    -1.744000000
C     2.523000000    -1.243000000    -4.297000000
C     2.631000000    -0.024000000    -5.090000000
H     2.458000000    -0.136000000    -6.163000000
H     3.710000000     0.107000000    -5.189000000
C     1.861000000     1.109000000    -4.510000000
C     2.434000000     1.938000000    -3.558000000
C     1.753000000     2.982000000    -3.047000000
H     2.258000000     3.761000000    -2.480000000
C     0.400000000     3.301000000    -3.412000000
O    -0.311000000     4.217000000    -2.780000000
C    -1.216000000     3.793000000    -1.712000000
H    -0.866000000     2.799000000    -1.397000000
C    -1.262000000     4.812000000    -0.554000000
C    -2.373000000     4.882000000     0.256000000
H    -3.246000000     4.272000000     0.038000000
C    -0.094000000     5.398000000    -0.157000000
H     0.800000000     5.268000000    -0.762000000
C    -0.137000000     6.289000000     0.908000000
O     0.924000000     6.797000000     1.476000000
C    -1.278000000     6.426000000     1.689000000
H    -1.249000000     7.074000000     2.561000000
C    -2.414000000     5.728000000     1.344000000
O    -3.489000000     5.883000000     2.211000000
C    -4.350000000     4.880000000     2.512000000
C    -3.925000000     3.645000000     2.968000000
H    -2.848000000     3.493000000     2.973000000
C    -5.675000000     5.201000000     2.486000000
H    -6.012000000     6.152000000     2.081000000
C    -6.613000000     4.397000000     3.089000000
H    -7.632000000     4.773000000     3.131000000
C    -6.229000000     3.073000000     3.461000000
H    -6.883000000     2.438000000     4.053000000
C    -4.864000000     2.750000000     3.423000000
O    -4.442000000     1.621000000     3.982000000
C    -4.350000000     0.309000000     3.450000000
C    -4.469000000    -0.833000000     4.241000000
H    -4.589000000    -0.853000000     5.321000000
C    -4.324000000    -2.094000000     3.603000000
O    -4.310000000    -3.227000000     4.408000000
C    -3.611000000    -4.386000000     4.209000000
C    -2.239000000    -4.396000000     4.156000000
H    -1.742000000    -3.430000000     4.185000000
C    -4.410000000    -5.527000000     4.229000000
H    -5.490000000    -5.434000000     4.308000000
C    -3.695000000    -6.724000000     4.102000000
H    -4.226000000    -7.672000000     4.111000000
C    -2.294000000    -6.781000000     4.119000000
H    -1.764000000    -7.719000000     3.974000000
C    -1.551000000    -5.607000000     4.176000000
O    -0.182000000    -5.602000000     4.200000000
C     0.581000000    -5.007000000     3.229000000
C     1.689000000    -4.269000000     3.699000000
H     1.902000000    -4.081000000     4.748000000
C     2.585000000    -3.670000000     2.837000000
O     3.711000000    -2.956000000     3.415000000
C     4.903000000    -2.922000000     2.759000000
C     5.446000000    -1.692000000     2.460000000
H     4.899000000    -0.798000000     2.748000000
C     5.696000000    -4.061000000     2.481000000
H     5.210000000    -5.007000000     2.704000000
C     6.968000000    -3.959000000     1.907000000
H     7.586000000    -4.799000000     1.600000000
C     7.520000000    -2.664000000     1.652000000
H     8.453000000    -2.472000000     1.128000000
C     6.706000000    -1.569000000     1.879000000
O     7.109000000    -0.342000000     1.411000000
C     6.323000000     0.664000000     0.778000000
C     6.077000000     1.874000000     1.449000000
H     6.672000000     2.183000000     2.305000000
C     5.058000000     2.636000000     0.891000000
O     4.505000000     3.662000000     1.663000000
C     4.020000000     4.901000000     1.208000000
C     4.692000000     5.612000000     0.231000000
H     5.603000000     5.262000000    -0.247000000
C     4.228000000     6.907000000    -0.096000000
H     4.726000000     7.555000000    -0.813000000
C     2.981000000     7.347000000     0.433000000
H     2.598000000     8.320000000     0.136000000
C     2.243000000     6.464000000     1.236000000
C     2.750000000     5.219000000     1.657000000
H     2.165000000     4.479000000     2.198000000
O     2.629000000    -2.207000000     7.132000000
H     2.145000000    -1.965000000     7.922000000
H     2.268000000    -1.643000000     6.448000000
O    -0.893000000    -1.866000000     6.085000000
H    -0.079000000    -1.544000000     5.698000000
H    -1.332000000    -1.079000000     6.409000000
O     6.507000000    -0.215000000     5.181000000
H     6.006000000    -0.922000000     5.587000000
H     7.422000000    -0.475000000     5.293000000
O     0.893000000    -4.298000000     7.066000000
H     0.144000000    -3.823000000     6.705000000
H     1.571000000    -3.631000000     7.171000000
O     4.635000000     1.942000000     5.699000000
H     5.381000000     1.532000000     5.261000000
H     3.889000000     1.390000000     5.468000000
O     1.290000000     3.393000000     5.156000000
H     1.456000000     3.354000000     6.097000000
H     1.679000000     2.589000000     4.811000000
O     5.125000000    -2.421000000     6.048000000
H     4.894000000    -2.910000000     5.259000000
H     4.345000000    -2.476000000     6.601000000
O    -0.584000000     0.526000000     9.390000000
H    -1.222000000     0.468000000     8.679000000
H    -1.110000000     0.695000000    10.172000000
O    -3.235000000     3.600000000     6.259000000
H    -2.653000000     3.029000000     5.757000000
H    -2.987000000     4.486000000     5.995000000
O     1.617000000    -1.592000000     9.496000000
H     1.485000000    -2.145000000    10.265000000
H     0.838000000    -1.037000000     9.462000000
O    -0.065000000     5.470000000     4.310000000
H     0.617000000     6.142000000     4.308000000
H     0.383000000     4.675000000     4.601000000
O     6.003000000     0.554000000     8.053000000
H     5.076000000     0.511000000     8.286000000
H     6.023000000     0.374000000     7.113000000
O    -2.191000000     0.289000000     7.295000000
H    -3.058000000     0.596000000     7.561000000
H    -1.959000000     0.843000000     6.550000000
O    -2.878000000    -2.952000000     7.530000000
H    -1.941000000    -2.829000000     7.380000000
H    -3.217000000    -3.256000000     6.689000000
O     4.795000000     3.658000000     7.622000000
H     5.158000000     2.903000000     8.086000000
H     4.805000000     3.399000000     6.700000000
O     1.404000000     1.396000000     7.081000000
H     1.814000000     0.835000000     6.424000000
H     0.673000000     0.878000000     7.417000000
O    -1.132000000     1.770000000     4.905000000
H    -1.019000000     1.834000000     3.957000000
H    -0.249000000     1.621000000     5.243000000
O     3.526000000     0.301000000     8.521000000
H     2.817000000     0.899000000     8.282000000
H     3.189000000    -0.182000000     9.275000000
O     3.931000000     5.096000000     4.596000000
H     3.608000000     4.197000000     4.654000000
H     3.199000000     5.591000000     4.228000000
