201
-1269.88086
C    -4.641000000    -1.056000000     1.818000000
H    -4.442000000    -2.123000000     1.873000000
C    -4.576000000    -0.394000000     0.572000000
C    -4.887000000     0.919000000     0.561000000
H    -4.771000000     1.561000000    -0.309000000
C    -3.986000000    -1.117000000    -0.632000000
O    -4.223000000    -2.551000000    -0.644000000
H    -2.908000000    -0.896000000    -0.615000000
O    -4.555000000    -0.547000000    -1.876000000
C    -3.640000000    -0.389000000    -2.939000000
C    -3.182000000     0.878000000    -3.122000000
H    -3.669000000     1.673000000    -2.562000000
C    -2.068000000     1.135000000    -3.849000000
O    -1.658000000     2.439000000    -3.998000000
C    -1.420000000     0.090000000    -4.540000000
C    -0.302000000     0.407000000    -5.483000000
H    -0.265000000    -0.306000000    -6.310000000
C     1.042000000     0.526000000    -4.748000000
C     1.870000000    -0.547000000    -4.680000000
H     1.541000000    -1.435000000    -5.213000000
H    -0.404000000     1.337000000    -6.046000000
C    -1.947000000    -1.230000000    -4.420000000
H    -1.447000000    -2.071000000    -4.894000000
C    -3.006000000    -1.441000000    -3.654000000
C    -3.425000000    -2.880000000    -3.402000000
H    -3.346000000    -3.427000000    -4.343000000
H    -4.490000000    -2.928000000    -3.167000000
C    -2.687000000    -3.526000000    -2.269000000
C    -1.490000000    -4.233000000    -2.524000000
H    -1.153000000    -4.457000000    -3.533000000
C    -3.136000000    -3.353000000    -0.946000000
C    -2.423000000    -3.896000000     0.117000000
H    -2.823000000    -3.683000000     1.105000000
C    -1.204000000    -4.478000000    -0.144000000
O    -0.443000000    -4.880000000     0.904000000
C     0.635000000    -4.074000000     1.421000000
C     0.623000000    -3.917000000     2.864000000
C     1.783000000    -3.493000000     3.479000000
H     2.682000000    -3.326000000     2.890000000
C    -0.561000000    -4.012000000     3.621000000
H    -1.463000000    -4.443000000     3.194000000
O     1.877000000    -4.500000000     0.880000000
H     0.440000000    -3.077000000     0.998000000
C    -0.733000000    -4.650000000    -1.401000000
C     0.631000000    -5.201000000    -1.623000000
H     0.714000000    -5.720000000    -2.579000000
H     0.815000000    -5.946000000    -0.846000000
C     1.789000000    -4.211000000    -1.515000000
C     2.210000000    -3.518000000    -2.660000000
H     1.722000000    -3.713000000    -3.612000000
C     2.386000000    -3.996000000    -0.298000000
C     3.378000000    -3.059000000    -0.181000000
H     3.732000000    -2.870000000     0.830000000
C     3.785000000    -2.286000000    -1.270000000
O     4.693000000    -1.329000000    -1.030000000
C     4.137000000     0.027000000    -1.023000000
C     4.665000000     0.886000000     0.126000000
C     5.212000000     0.262000000     1.253000000
H     5.429000000    -0.803000000     1.269000000
C     4.533000000     2.232000000     0.052000000
H     3.987000000     2.623000000    -0.802000000
O     4.371000000     0.764000000    -2.336000000
H     3.101000000    -0.129000000    -0.688000000
C     3.232000000    -2.562000000    -2.531000000
C     3.783000000    -1.802000000    -3.751000000
H     3.829000000    -2.429000000    -4.644000000
H     4.801000000    -1.447000000    -3.579000000
C     2.993000000    -0.550000000    -3.882000000
C     3.294000000     0.652000000    -3.159000000
C     2.546000000     1.747000000    -3.271000000
H     2.818000000     2.634000000    -2.704000000
C     1.407000000     1.734000000    -4.083000000
O     0.712000000     2.890000000    -4.179000000
C    -0.486000000     2.957000000    -3.318000000
H    -0.323000000     2.313000000    -2.441000000
C    -0.709000000     4.361000000    -2.750000000
C    -2.021000000     4.745000000    -2.301000000
H    -2.880000000     4.098000000    -2.461000000
C     0.453000000     5.103000000    -2.477000000
H     1.413000000     4.708000000    -2.799000000
C     0.352000000     6.206000000    -1.667000000
O     1.409000000     7.043000000    -1.271000000
C    -0.913000000     6.615000000    -1.223000000
H    -0.943000000     7.442000000    -0.518000000
C    -2.100000000     5.921000000    -1.573000000
O    -3.323000000     6.394000000    -1.102000000
C    -4.426000000     5.592000000    -0.659000000
C    -4.289000000     4.570000000     0.296000000
H    -3.297000000     4.271000000     0.626000000
C    -5.679000000     6.041000000    -1.036000000
H    -5.757000000     6.928000000    -1.660000000
C    -6.793000000     5.302000000    -0.649000000
H    -7.822000000     5.478000000    -0.952000000
C    -6.651000000     4.202000000     0.187000000
H    -7.522000000     3.693000000     0.590000000
C    -5.376000000     3.849000000     0.715000000
O    -5.305000000     2.991000000     1.819000000
C    -5.205000000     1.601000000     1.735000000
C    -5.277000000     0.905000000     2.897000000
H    -5.617000000     1.393000000     3.807000000
C    -4.971000000    -0.427000000     2.966000000
O    -5.235000000    -1.040000000     4.099000000
C    -4.724000000    -2.296000000     4.502000000
C    -3.392000000    -2.405000000     4.916000000
H    -2.698000000    -1.571000000     4.845000000
C    -5.546000000    -3.433000000     4.367000000
H    -6.548000000    -3.275000000     3.974000000
C    -4.998000000    -4.719000000     4.673000000
H    -5.551000000    -5.652000000     4.591000000
C    -3.742000000    -4.780000000     5.166000000
H    -3.335000000    -5.736000000     5.486000000
C    -2.930000000    -3.694000000     5.184000000
O    -1.623000000    -3.824000000     5.707000000
C    -0.489000000    -3.702000000     4.967000000
C     0.617000000    -3.267000000     5.566000000
H     0.524000000    -2.980000000     6.610000000
C     1.756000000    -3.116000000     4.840000000
O     2.816000000    -2.527000000     5.471000000
C     4.068000000    -2.321000000     4.886000000
C     4.436000000    -1.034000000     4.511000000
H     3.735000000    -0.254000000     4.796000000
C     4.942000000    -3.385000000     4.672000000
H     4.572000000    -4.364000000     4.965000000
C     6.221000000    -3.144000000     4.193000000
H     6.857000000    -4.023000000     4.129000000
C     6.603000000    -1.862000000     3.781000000
H     7.578000000    -1.661000000     3.345000000
C     5.685000000    -0.793000000     3.875000000
O     6.098000000     0.468000000     3.449000000
C     5.563000000     1.052000000     2.325000000
C     5.381000000     2.421000000     2.344000000
H     5.491000000     2.945000000     3.290000000
C     4.817000000     3.000000000     1.208000000
O     4.282000000     4.245000000     1.450000000
C     4.043000000     4.987000000     0.367000000
C     5.159000000     5.445000000    -0.387000000
H     6.121000000     5.025000000    -0.106000000
C     4.995000000     6.293000000    -1.429000000
H     5.858000000     6.640000000    -1.990000000
C     3.750000000     6.790000000    -1.732000000
H     3.648000000     7.448000000    -2.591000000
C     2.615000000     6.416000000    -0.999000000
C     2.813000000     5.600000000     0.043000000
H     1.932000000     5.307000000     0.609000000
O    -0.366000000     3.685000000     6.805000000
H     0.195000000     3.220000000     6.185000000
H    -1.077000000     4.036000000     6.268000000
O    -2.778000000     2.940000000     8.530000000
H    -2.561000000     2.700000000     7.629000000
H    -2.064000000     2.577000000     9.054000000
O     0.323000000     0.397000000     7.690000000
H     0.325000000     1.313000000     7.966000000
H    -0.012000000     0.418000000     6.794000000
O     0.313000000     6.869000000     2.705000000
H     0.016000000     5.960000000     2.752000000
H    -0.427000000     7.380000000     3.032000000
O    -0.665000000     4.442000000     3.256000000
H     0.046000000     3.824000000     3.422000000
H    -1.304000000     4.264000000     3.947000000
O    -0.121000000     2.790000000     9.446000000
H    -0.208000000     3.407000000     8.720000000
H     0.806000000     2.825000000     9.681000000
O     2.940000000    -0.208000000     8.079000000
H     2.150000000     0.080000000     7.623000000
H     2.744000000    -0.072000000     9.006000000
O     2.465000000     2.691000000    10.357000000
H     3.111000000     2.955000000     9.702000000
H     2.577000000     1.744000000    10.436000000
O    -2.397000000     5.045000000     5.260000000
H    -3.228000000     4.572000000     5.224000000
H    -2.613000000     5.878000000     5.680000000
O    -2.838000000     1.146000000     6.527000000
H    -2.847000000     0.476000000     7.210000000
H    -1.994000000     1.031000000     6.090000000
O    -2.924000000    -0.819000000     9.345000000
H    -3.800000000    -1.089000000     9.069000000
H    -3.060000000     0.019000000     9.787000000
O     0.169000000     6.412000000     5.512000000
H    -0.447000000     5.687000000     5.408000000
H     0.727000000     6.366000000     4.736000000
O     7.336000000     1.394000000     6.000000000
H     6.390000000     1.537000000     5.989000000
H     7.633000000     1.691000000     5.140000000
O     3.025000000     5.641000000     4.724000000
H     2.808000000     5.081000000     5.469000000
H     3.350000000     5.036000000     4.057000000
O    -4.440000000     3.004000000     5.314000000
H    -3.806000000     2.457000000     5.779000000
H    -4.321000000     2.778000000     4.392000000
O     4.546000000     1.584000000     6.728000000
H     5.116000000     1.863000000     7.444000000
H     4.081000000     0.822000000     7.075000000
O    -0.443000000    -2.088000000     9.568000000
H    -0.044000000    -1.629000000     8.828000000
H    -1.385000000    -1.966000000     9.445000000
O     2.429000000     3.244000000     6.260000000
H     1.749000000     2.851000000     5.714000000
H     3.189000000     2.673000000     6.145000000
O     1.617000000     5.532000000     8.197000000
H     1.499000000     6.210000000     7.532000000
H     1.292000000     4.732000000     7.783000000
