201
-1229.56625
C    -5.152000000    -1.525000000     1.674000000
H    -4.873000000    -2.573000000     1.600000000
C    -4.863000000    -0.727000000     0.575000000
C    -5.268000000     0.583000000     0.579000000
H    -5.066000000     1.241000000    -0.262000000
C    -4.169000000    -1.192000000    -0.678000000
O    -4.340000000    -2.608000000    -0.895000000
H    -3.103000000    -0.962000000    -0.537000000
O    -4.564000000    -0.536000000    -1.875000000
C    -3.625000000    -0.198000000    -2.757000000
C    -3.362000000     1.147000000    -2.918000000
H    -3.843000000     1.924000000    -2.327000000
C    -2.317000000     1.497000000    -3.726000000
O    -1.827000000     2.766000000    -3.658000000
C    -1.675000000     0.573000000    -4.534000000
C    -0.474000000     0.876000000    -5.368000000
H    -0.505000000     0.219000000    -6.240000000
C     0.811000000     0.745000000    -4.608000000
C     1.650000000    -0.370000000    -4.685000000
H     1.248000000    -1.293000000    -5.093000000
H    -0.487000000     1.886000000    -5.784000000
C    -2.120000000    -0.782000000    -4.462000000
H    -1.661000000    -1.551000000    -5.078000000
C    -3.067000000    -1.203000000    -3.576000000
C    -3.388000000    -2.690000000    -3.570000000
H    -3.043000000    -3.155000000    -4.496000000
H    -4.456000000    -2.896000000    -3.472000000
C    -2.619000000    -3.295000000    -2.395000000
C    -1.443000000    -4.008000000    -2.641000000
H    -1.041000000    -4.020000000    -3.651000000
C    -3.197000000    -3.338000000    -1.105000000
C    -2.577000000    -3.876000000    -0.048000000
H    -2.932000000    -3.675000000     0.960000000
C    -1.339000000    -4.498000000    -0.261000000
O    -0.646000000    -4.859000000     0.875000000
C     0.448000000    -3.984000000     1.321000000
C     0.490000000    -3.719000000     2.801000000
C     1.587000000    -2.974000000     3.362000000
H     2.301000000    -2.467000000     2.718000000
C    -0.580000000    -4.152000000     3.607000000
H    -1.405000000    -4.703000000     3.162000000
O     1.673000000    -4.430000000     0.784000000
H     0.082000000    -3.036000000     0.901000000
C    -0.850000000    -4.637000000    -1.556000000
C     0.563000000    -5.241000000    -1.705000000
H     0.697000000    -5.791000000    -2.638000000
H     0.782000000    -6.089000000    -1.053000000
C     1.659000000    -4.191000000    -1.566000000
C     2.092000000    -3.479000000    -2.704000000
H     1.723000000    -3.741000000    -3.692000000
C     2.191000000    -3.862000000    -0.320000000
C     3.253000000    -2.941000000    -0.244000000
H     3.691000000    -2.598000000     0.690000000
C     3.731000000    -2.264000000    -1.333000000
O     4.619000000    -1.226000000    -1.135000000
C     4.044000000     0.037000000    -1.122000000
C     4.650000000     0.841000000     0.044000000
C     5.218000000     0.288000000     1.204000000
H     5.233000000    -0.797000000     1.263000000
C     4.655000000     2.281000000    -0.138000000
H     4.199000000     2.762000000    -1.000000000
O     4.359000000     0.650000000    -2.389000000
H     2.945000000     0.018000000    -1.092000000
C     3.054000000    -2.493000000    -2.614000000
C     3.565000000    -1.740000000    -3.877000000
H     3.425000000    -2.370000000    -4.758000000
H     4.654000000    -1.663000000    -3.837000000
C     2.881000000    -0.453000000    -3.991000000
C     3.340000000     0.662000000    -3.316000000
C     2.562000000     1.816000000    -3.328000000
H     2.756000000     2.603000000    -2.603000000
C     1.312000000     1.871000000    -3.958000000
O     0.538000000     3.041000000    -3.875000000
C    -0.611000000     2.972000000    -2.967000000
H    -0.502000000     2.155000000    -2.239000000
C    -0.651000000     4.236000000    -2.141000000
C    -1.646000000     4.328000000    -1.117000000
H    -2.466000000     3.623000000    -1.002000000
C     0.481000000     5.029000000    -2.015000000
H     1.408000000     4.869000000    -2.560000000
C     0.558000000     6.026000000    -1.061000000
O     1.561000000     6.927000000    -1.075000000
C    -0.483000000     6.201000000    -0.190000000
H    -0.443000000     7.035000000     0.506000000
C    -1.544000000     5.343000000    -0.170000000
O    -2.589000000     5.523000000     0.711000000
C    -3.840000000     5.095000000     0.505000000
C    -4.309000000     4.035000000     1.248000000
H    -3.687000000     3.686000000     2.068000000
C    -4.612000000     5.697000000    -0.468000000
H    -4.220000000     6.510000000    -1.073000000
C    -5.918000000     5.246000000    -0.642000000
H    -6.561000000     5.652000000    -1.418000000
C    -6.368000000     4.094000000     0.043000000
H    -7.321000000     3.615000000    -0.167000000
C    -5.566000000     3.461000000     0.970000000
O    -6.199000000     2.494000000     1.782000000
C    -5.889000000     1.138000000     1.733000000
C    -5.973000000     0.346000000     2.839000000
H    -6.354000000     0.763000000     3.767000000
C    -5.676000000    -0.995000000     2.835000000
O    -5.490000000    -1.653000000     3.983000000
C    -4.757000000    -2.817000000     4.176000000
C    -3.630000000    -2.858000000     4.992000000
H    -3.237000000    -1.993000000     5.521000000
C    -5.443000000    -3.995000000     3.915000000
H    -6.361000000    -4.011000000     3.333000000
C    -4.865000000    -5.249000000     4.183000000
H    -5.404000000    -6.153000000     3.914000000
C    -3.543000000    -5.252000000     4.691000000
H    -2.923000000    -6.145000000     4.691000000
C    -2.977000000    -4.092000000     5.204000000
O    -1.701000000    -4.049000000     5.707000000
C    -0.569000000    -3.840000000     4.972000000
C     0.459000000    -3.070000000     5.516000000
H     0.418000000    -2.751000000     6.554000000
C     1.564000000    -2.711000000     4.765000000
O     2.640000000    -2.036000000     5.272000000
C     3.925000000    -1.950000000     4.688000000
C     4.451000000    -0.754000000     4.238000000
H     3.852000000     0.146000000     4.129000000
C     4.669000000    -3.113000000     4.574000000
H     4.242000000    -4.071000000     4.858000000
C     5.982000000    -3.040000000     4.035000000
H     6.528000000    -3.980000000     4.008000000
C     6.529000000    -1.823000000     3.669000000
H     7.538000000    -1.897000000     3.272000000
C     5.791000000    -0.638000000     3.846000000
O     6.299000000     0.525000000     3.312000000
C     5.715000000     1.121000000     2.152000000
C     5.777000000     2.523000000     1.986000000
H     6.186000000     3.095000000     2.815000000
C     5.171000000     3.114000000     0.866000000
O     5.264000000     4.519000000     0.836000000
C     4.709000000     5.282000000    -0.190000000
C     5.649000000     6.004000000    -0.933000000
H     6.676000000     5.715000000    -0.728000000
C     5.178000000     7.056000000    -1.726000000
H     5.950000000     7.710000000    -2.126000000
C     3.813000000     7.325000000    -1.857000000
H     3.530000000     8.175000000    -2.473000000
C     2.897000000     6.493000000    -1.153000000
C     3.393000000     5.519000000    -0.261000000
H     2.734000000     5.015000000     0.443000000
O    -3.777000000     1.314000000     5.175000000
H    -3.030000000     1.808000000     4.837000000
H    -3.428000000     0.836000000     5.927000000
O    -2.147000000     2.690000000     9.953000000
H    -1.542000000     2.077000000     9.535000000
H    -1.990000000     3.523000000     9.509000000
O    -2.883000000     8.040000000     1.834000000
H    -2.572000000     7.215000000     2.206000000
H    -3.838000000     7.970000000     1.863000000
O    -2.538000000     0.339000000     7.389000000
H    -2.700000000    -0.566000000     7.655000000
H    -1.584000000     0.416000000     7.375000000
O    -0.145000000     5.303000000     6.209000000
H    -0.865000000     4.989000000     6.755000000
H    -0.193000000     4.767000000     5.417000000
O     2.292000000     8.087000000     2.845000000
H     3.152000000     8.423000000     2.591000000
H     2.344000000     7.146000000     2.679000000
O    -2.051000000     6.051000000     3.592000000
H    -2.723000000     5.405000000     3.809000000
H    -1.269000000     5.531000000     3.408000000
O    -2.661000000     4.112000000     6.528000000
H    -3.390000000     4.220000000     5.917000000
H    -2.320000000     3.237000000     6.342000000
O     2.895000000     5.664000000     6.126000000
H     2.084000000     5.360000000     6.532000000
H     3.382000000     6.075000000     6.841000000
O    -0.054000000     0.018000000     8.347000000
H     0.799000000    -0.377000000     8.524000000
H    -0.628000000    -0.338000000     9.025000000
O    -2.806000000     5.456000000     8.704000000
H    -2.645000000     4.970000000     7.896000000
H    -3.753000000     5.593000000     8.717000000
O     0.742000000     2.583000000     6.916000000
H     0.514000000     1.675000000     7.111000000
H     0.057000000     2.878000000     6.315000000
O     0.885000000     3.168000000     9.659000000
H     0.918000000     2.847000000     8.758000000
H     1.412000000     2.542000000    10.156000000
O     0.154000000     7.293000000     7.951000000
H     0.909000000     6.962000000     8.437000000
H    -0.167000000     6.535000000     7.463000000
O    -0.717000000     7.930000000     5.083000000
H    -1.290000000     7.338000000     4.595000000
H    -0.015000000     7.368000000     5.411000000
O    -5.653000000     1.769000000     7.205000000
H    -5.973000000     1.295000000     6.437000000
H    -4.720000000     1.558000000     7.245000000
O     3.367000000     1.734000000     6.440000000
H     2.491000000     2.120000000     6.445000000
H     3.233000000     0.832000000     6.730000000
O     1.998000000     5.073000000     2.850000000
H     1.263000000     4.922000000     3.444000000
H     2.488000000     4.251000000     2.860000000
O    -4.316000000     4.552000000     4.549000000
H    -5.025000000     5.195000000     4.573000000
H    -4.755000000     3.718000000     4.381000000
