201
-1235.66368
C    -4.169000000    -3.201000000     0.805000000
H    -4.094000000    -4.153000000     0.286000000
C    -3.765000000    -2.147000000     0.050000000
C    -4.073000000    -0.884000000     0.522000000
H    -3.706000000    -0.076000000    -0.106000000
C    -3.133000000    -2.416000000    -1.313000000
O    -2.967000000    -3.780000000    -1.679000000
H    -2.170000000    -1.887000000    -1.255000000
O    -3.762000000    -1.737000000    -2.397000000
C    -3.080000000    -0.904000000    -3.199000000
C    -3.222000000     0.484000000    -2.985000000
H    -3.910000000     0.921000000    -2.267000000
C    -2.458000000     1.323000000    -3.712000000
O    -2.549000000     2.635000000    -3.424000000
C    -1.475000000     0.817000000    -4.582000000
C    -0.544000000     1.739000000    -5.347000000
H    -0.241000000     1.185000000    -6.239000000
C     0.658000000     2.153000000    -4.512000000
C     1.750000000     1.249000000    -4.528000000
H     1.827000000     0.446000000    -5.256000000
H    -1.152000000     2.604000000    -5.621000000
C    -1.272000000    -0.533000000    -4.737000000
H    -0.580000000    -0.912000000    -5.485000000
C    -2.058000000    -1.406000000    -4.020000000
C    -2.024000000    -2.893000000    -4.329000000
H    -1.634000000    -3.072000000    -5.333000000
H    -3.062000000    -3.228000000    -4.380000000
C    -1.165000000    -3.570000000    -3.337000000
C     0.218000000    -3.560000000    -3.554000000
H     0.577000000    -3.094000000    -4.469000000
C    -1.698000000    -4.106000000    -2.147000000
C    -0.808000000    -4.585000000    -1.208000000
H    -1.164000000    -4.917000000    -0.236000000
C     0.564000000    -4.619000000    -1.458000000
O     1.281000000    -4.999000000    -0.415000000
C     1.842000000    -3.879000000     0.328000000
C     1.672000000    -3.987000000     1.847000000
C     2.344000000    -3.076000000     2.728000000
H     2.979000000    -2.367000000     2.203000000
C     0.712000000    -4.819000000     2.361000000
H    -0.001000000    -5.329000000     1.718000000
O     3.212000000    -3.684000000     0.010000000
H     1.339000000    -2.929000000     0.094000000
C     1.079000000    -4.208000000    -2.653000000
C     2.586000000    -4.197000000    -2.850000000
H     2.753000000    -4.247000000    -3.928000000
H     3.020000000    -5.144000000    -2.523000000
C     3.253000000    -2.948000000    -2.303000000
C     3.530000000    -1.874000000    -3.167000000
H     3.227000000    -1.952000000    -4.208000000
C     3.604000000    -2.764000000    -0.969000000
C     4.178000000    -1.549000000    -0.523000000
H     4.438000000    -1.359000000     0.515000000
C     4.423000000    -0.471000000    -1.401000000
O     4.802000000     0.847000000    -0.951000000
C     3.802000000     1.849000000    -0.761000000
C     3.949000000     2.374000000     0.617000000
C     4.517000000     1.679000000     1.679000000
H     5.040000000     0.737000000     1.535000000
C     3.403000000     3.622000000     0.861000000
H     2.828000000     4.158000000     0.110000000
O     3.758000000     2.784000000    -1.792000000
H     2.812000000     1.375000000    -0.691000000
C     4.016000000    -0.646000000    -2.734000000
C     3.945000000     0.538000000    -3.694000000
H     3.987000000     0.176000000    -4.723000000
H     4.942000000     0.950000000    -3.524000000
C     2.805000000     1.444000000    -3.621000000
C     2.807000000     2.628000000    -2.771000000
C     1.761000000     3.508000000    -2.850000000
H     1.842000000     4.401000000    -2.235000000
C     0.701000000     3.294000000    -3.688000000
O    -0.490000000     3.952000000    -3.487000000
C    -1.531000000     3.311000000    -2.675000000
H    -1.042000000     2.620000000    -1.973000000
C    -2.092000000     4.249000000    -1.659000000
C    -3.431000000     4.180000000    -1.226000000
H    -4.162000000     3.511000000    -1.671000000
C    -1.264000000     5.160000000    -0.989000000
H    -0.234000000     5.212000000    -1.333000000
C    -1.728000000     6.070000000    -0.042000000
O    -0.937000000     6.984000000     0.645000000
C    -3.000000000     5.972000000     0.368000000
H    -3.364000000     6.638000000     1.147000000
C    -3.894000000     5.061000000    -0.274000000
O    -5.144000000     4.966000000     0.178000000
C    -5.781000000     3.823000000     0.467000000
C    -5.089000000     2.767000000     1.129000000
H    -4.074000000     2.973000000     1.457000000
C    -7.068000000     3.538000000    -0.021000000
H    -7.471000000     4.339000000    -0.636000000
C    -7.656000000     2.301000000     0.244000000
H    -8.680000000     2.272000000    -0.118000000
C    -6.995000000     1.257000000     0.951000000
H    -7.529000000     0.351000000     1.227000000
C    -5.706000000     1.565000000     1.391000000
O    -5.080000000     0.586000000     2.221000000
C    -4.638000000    -0.629000000     1.758000000
C    -4.870000000    -1.783000000     2.558000000
H    -5.368000000    -1.605000000     3.507000000
C    -4.659000000    -3.052000000     2.122000000
O    -4.936000000    -4.084000000     2.984000000
C    -3.994000000    -5.043000000     3.491000000
C    -2.604000000    -4.792000000     3.566000000
H    -2.257000000    -3.784000000     3.352000000
C    -4.415000000    -6.312000000     3.892000000
H    -5.474000000    -6.554000000     3.858000000
C    -3.548000000    -7.256000000     4.373000000
H    -3.892000000    -8.274000000     4.536000000
C    -2.214000000    -6.969000000     4.454000000
H    -1.525000000    -7.794000000     4.615000000
C    -1.735000000    -5.764000000     4.060000000
O    -0.376000000    -5.707000000     4.260000000
C     0.521000000    -4.830000000     3.733000000
C     1.187000000    -3.987000000     4.683000000
H     0.936000000    -4.011000000     5.740000000
C     2.159000000    -3.118000000     4.113000000
O     2.774000000    -2.214000000     4.946000000
C     4.017000000    -1.770000000     4.695000000
C     4.079000000    -0.384000000     4.457000000
H     3.216000000     0.205000000     4.756000000
C     5.204000000    -2.551000000     4.514000000
H     5.099000000    -3.620000000     4.681000000
C     6.477000000    -1.983000000     4.389000000
H     7.366000000    -2.607000000     4.434000000
C     6.516000000    -0.584000000     4.161000000
H     7.402000000    -0.038000000     3.849000000
C     5.302000000     0.168000000     4.159000000
O     5.406000000     1.547000000     3.958000000
C     4.666000000     2.210000000     2.953000000
C     4.182000000     3.506000000     3.187000000
H     4.387000000     4.021000000     4.122000000
C     3.590000000     4.208000000     2.109000000
O     3.220000000     5.505000000     2.389000000
C     2.550000000     6.244000000     1.471000000
C     3.237000000     7.194000000     0.692000000
H     4.311000000     7.302000000     0.819000000
C     2.460000000     8.003000000    -0.106000000
H     3.022000000     8.721000000    -0.698000000
C     1.090000000     7.897000000    -0.226000000
H     0.521000000     8.442000000    -0.975000000
C     0.414000000     6.960000000     0.618000000
C     1.150000000     6.148000000     1.451000000
H     0.652000000     5.381000000     2.038000000
O     2.304000000     7.865000000     4.631000000
H     1.813000000     7.909000000     3.811000000
H     2.311000000     8.765000000     4.955000000
O     1.737000000     0.745000000     7.883000000
H     1.809000000     0.695000000     8.836000000
H     2.554000000     0.362000000     7.561000000
O    -2.817000000     3.798000000     8.408000000
H    -3.724000000     3.773000000     8.103000000
H    -2.298000000     3.872000000     7.607000000
O    -2.554000000     6.196000000     9.626000000
H    -2.594000000     5.375000000     9.137000000
H    -1.787000000     6.648000000     9.273000000
O    -2.623000000    -3.525000000     7.285000000
H    -3.198000000    -3.185000000     7.971000000
H    -2.889000000    -3.055000000     6.495000000
O    -6.667000000     4.393000000     3.478000000
H    -5.922000000     3.828000000     3.681000000
H    -7.399000000     4.007000000     3.959000000
O    -5.486000000     0.244000000     5.996000000
H    -4.651000000    -0.188000000     5.819000000
H    -5.277000000     1.178000000     5.996000000
O    -5.474000000     3.220000000     7.084000000
H    -5.994000000     3.983000000     7.334000000
H    -5.361000000     3.307000000     6.137000000
O    -7.751000000    -0.066000000     4.322000000
H    -6.878000000     0.027000000     4.704000000
H    -7.780000000    -0.971000000     4.010000000
O     2.690000000     2.967000000     6.301000000
H     2.222000000     3.372000000     5.571000000
H     2.068000000     2.337000000     6.664000000
O     0.144000000    -1.450000000     7.701000000
H     0.580000000    -0.612000000     7.856000000
H     0.291000000    -1.628000000     6.772000000
O    -5.601000000     6.998000000     2.156000000
H    -5.487000000     6.436000000     2.923000000
H    -6.017000000     6.433000000     1.505000000
O     1.040000000     4.283000000     4.516000000
H     1.483000000     4.410000000     3.677000000
H     0.110000000     4.239000000     4.291000000
O    -0.400000000     8.264000000     3.445000000
H    -0.937000000     7.500000000     3.235000000
H    -0.330000000     8.252000000     4.400000000
O    -4.604000000     6.013000000     5.389000000
H    -4.370000000     6.929000000     5.239000000
H    -4.718000000     5.948000000     6.338000000
O    -2.792000000    -0.125000000     5.964000000
H    -2.428000000     0.245000000     6.768000000
H    -2.491000000     0.463000000     5.271000000
O    -4.828000000     2.666000000     4.400000000
H    -4.612000000     1.993000000     3.755000000
H    -3.990000000     2.886000000     4.807000000
O    -2.175000000     5.933000000     4.121000000
H    -3.057000000     5.748000000     4.444000000
H    -1.850000000     5.086000000     3.813000000
O    -1.267000000     3.831000000     6.155000000
H    -0.470000000     4.331000000     5.978000000
H    -1.522000000     3.476000000     5.303000000
