201
-1259.82885
C    -4.038000000    -3.493000000     1.001000000
H    -3.523000000    -4.425000000     0.783000000
C    -4.054000000    -2.442000000     0.120000000
C    -4.771000000    -1.322000000     0.473000000
H    -4.720000000    -0.450000000    -0.174000000
C    -3.098000000    -2.542000000    -1.074000000
O    -2.736000000    -3.912000000    -1.376000000
H    -2.186000000    -1.950000000    -0.908000000
O    -3.752000000    -2.103000000    -2.289000000
C    -3.132000000    -1.142000000    -3.072000000
C    -3.322000000     0.206000000    -2.816000000
H    -3.873000000     0.584000000    -1.959000000
C    -2.704000000     1.111000000    -3.670000000
O    -2.827000000     2.440000000    -3.430000000
C    -1.713000000     0.688000000    -4.525000000
C    -0.739000000     1.644000000    -5.231000000
H    -0.491000000     1.171000000    -6.183000000
C     0.440000000     1.955000000    -4.406000000
C     1.574000000     1.190000000    -4.528000000
H     1.499000000     0.398000000    -5.269000000
H    -1.280000000     2.545000000    -5.528000000
C    -1.465000000    -0.668000000    -4.722000000
H    -0.714000000    -1.021000000    -5.424000000
C    -2.199000000    -1.603000000    -3.985000000
C    -1.858000000    -3.077000000    -4.000000000
H    -1.374000000    -3.314000000    -4.950000000
H    -2.745000000    -3.709000000    -4.074000000
C    -0.917000000    -3.600000000    -3.004000000
C     0.446000000    -3.709000000    -3.295000000
H     0.722000000    -3.436000000    -4.310000000
C    -1.424000000    -4.052000000    -1.753000000
C    -0.526000000    -4.452000000    -0.753000000
H    -0.986000000    -4.794000000     0.171000000
C     0.878000000    -4.500000000    -1.040000000
O     1.694000000    -4.675000000     0.067000000
C     2.401000000    -3.556000000     0.570000000
C     2.195000000    -3.457000000     2.091000000
C     3.143000000    -2.860000000     2.879000000
H     4.044000000    -2.378000000     2.509000000
C     1.007000000    -3.863000000     2.700000000
H     0.156000000    -4.177000000     2.100000000
O     3.757000000    -3.391000000     0.125000000
H     1.904000000    -2.620000000     0.277000000
C     1.323000000    -4.163000000    -2.309000000
C     2.788000000    -4.105000000    -2.516000000
H     2.973000000    -4.343000000    -3.565000000
H     3.358000000    -4.924000000    -2.072000000
C     3.406000000    -2.749000000    -2.206000000
C     3.580000000    -1.768000000    -3.253000000
H     3.144000000    -1.927000000    -4.236000000
C     3.986000000    -2.534000000    -0.930000000
C     4.555000000    -1.285000000    -0.659000000
H     4.966000000    -1.152000000     0.338000000
C     4.548000000    -0.225000000    -1.557000000
O     4.945000000     1.031000000    -1.206000000
C     3.866000000     1.986000000    -0.943000000
C     4.099000000     2.638000000     0.361000000
C     4.954000000     2.111000000     1.357000000
H     5.637000000     1.332000000     1.029000000
C     3.216000000     3.707000000     0.659000000
H     2.455000000     3.924000000    -0.086000000
O     3.669000000     2.913000000    -2.024000000
H     2.966000000     1.360000000    -0.862000000
C     4.012000000    -0.467000000    -2.854000000
C     4.036000000     0.590000000    -3.937000000
H     4.116000000     0.073000000    -4.896000000
H     4.948000000     1.188000000    -3.872000000
C     2.757000000     1.430000000    -3.739000000
C     2.674000000     2.549000000    -2.913000000
C     1.532000000     3.330000000    -2.800000000
H     1.355000000     4.192000000    -2.161000000
C     0.387000000     3.018000000    -3.545000000
O    -0.799000000     3.652000000    -3.362000000
C    -1.814000000     3.038000000    -2.592000000
H    -1.328000000     2.240000000    -2.012000000
C    -2.490000000     4.004000000    -1.621000000
C    -3.847000000     3.778000000    -1.231000000
H    -4.391000000     2.962000000    -1.699000000
C    -1.737000000     5.065000000    -1.114000000
H    -0.692000000     5.204000000    -1.377000000
C    -2.378000000     5.894000000    -0.207000000
O    -1.615000000     7.015000000     0.187000000
C    -3.683000000     5.657000000     0.239000000
H    -4.193000000     6.366000000     0.887000000
C    -4.418000000     4.577000000    -0.272000000
O    -5.718000000     4.344000000     0.132000000
C    -6.306000000     3.127000000     0.285000000
C    -5.780000000     2.101000000     1.055000000
H    -4.904000000     2.251000000     1.682000000
C    -7.615000000     2.968000000    -0.224000000
H    -8.042000000     3.800000000    -0.779000000
C    -8.406000000     1.832000000     0.023000000
H    -9.480000000     1.858000000    -0.145000000
C    -7.793000000     0.740000000     0.691000000
H    -8.398000000    -0.140000000     0.896000000
C    -6.507000000     0.875000000     1.198000000
O    -5.969000000    -0.053000000     2.060000000
C    -5.397000000    -1.230000000     1.682000000
C    -5.525000000    -2.332000000     2.465000000
H    -6.115000000    -2.302000000     3.377000000
C    -4.737000000    -3.492000000     2.211000000
O    -4.754000000    -4.587000000     3.004000000
C    -3.523000000    -5.231000000     3.258000000
C    -2.411000000    -4.501000000     3.606000000
H    -2.613000000    -3.434000000     3.650000000
C    -3.441000000    -6.607000000     3.401000000
H    -4.268000000    -7.248000000     3.107000000
C    -2.314000000    -7.237000000     3.911000000
H    -2.290000000    -8.319000000     4.022000000
C    -1.196000000    -6.484000000     4.191000000
H    -0.232000000    -6.824000000     4.560000000
C    -1.302000000    -5.086000000     4.094000000
O    -0.275000000    -4.339000000     4.683000000
C     0.853000000    -3.862000000     4.091000000
C     1.847000000    -3.420000000     4.875000000
H     1.741000000    -3.493000000     5.954000000
C     3.007000000    -2.860000000     4.301000000
O     3.935000000    -2.294000000     5.109000000
C     4.960000000    -1.504000000     4.663000000
C     4.610000000    -0.221000000     4.318000000
H     3.604000000     0.191000000     4.281000000
C     6.306000000    -1.879000000     4.665000000
H     6.541000000    -2.904000000     4.938000000
C     7.319000000    -1.051000000     4.237000000
H     8.354000000    -1.372000000     4.160000000
C     6.941000000     0.243000000     3.846000000
H     7.679000000     0.969000000     3.515000000
C     5.628000000     0.656000000     3.875000000
O     5.461000000     1.998000000     3.750000000
C     4.869000000     2.586000000     2.644000000
C     4.017000000     3.646000000     2.938000000
H     3.964000000     4.059000000     3.942000000
C     3.204000000     4.219000000     1.970000000
O     2.416000000     5.351000000     2.388000000
C     1.712000000     6.117000000     1.474000000
C     2.438000000     7.010000000     0.772000000
H     3.507000000     7.007000000     0.971000000
C     1.919000000     7.986000000    -0.021000000
H     2.511000000     8.675000000    -0.618000000
C     0.574000000     7.919000000    -0.295000000
H     0.163000000     8.725000000    -0.898000000
C    -0.248000000     7.002000000     0.356000000
C     0.310000000     6.114000000     1.312000000
H    -0.360000000     5.484000000     1.892000000
O    -2.086000000     5.425000000     6.879000000
H    -1.257000000     5.885000000     7.012000000
H    -2.045000000     5.113000000     5.975000000
O    -0.916000000     1.844000000     9.903000000
H    -1.274000000     1.575000000     9.057000000
H     0.032000000     1.849000000     9.771000000
O    -3.444000000     0.574000000     9.896000000
H    -2.712000000     0.454000000    10.500000000
H    -3.035000000     0.644000000     9.033000000
O    -7.893000000     2.839000000     4.894000000
H    -7.060000000     2.537000000     4.533000000
H    -7.686000000     3.097000000     5.792000000
O    -7.595000000    -0.425000000     7.113000000
H    -7.442000000    -0.618000000     8.038000000
H    -6.736000000    -0.169000000     6.777000000
O    -0.357000000    -1.568000000     6.134000000
H    -0.174000000    -2.278000000     5.519000000
H    -1.074000000    -1.079000000     5.730000000
O    -4.690000000    -2.683000000     7.040000000
H    -5.366000000    -3.251000000     6.670000000
H    -4.829000000    -1.837000000     6.615000000
O    -6.847000000     2.580000000     7.441000000
H    -5.979000000     2.624000000     7.039000000
H    -6.713000000     2.081000000     8.246000000
O    -2.217000000     1.029000000     7.537000000
H    -1.625000000     1.649000000     7.111000000
H    -2.623000000     0.551000000     6.814000000
O     1.837000000    -0.105000000     7.339000000
H     1.007000000    -0.269000000     6.893000000
H     2.224000000    -0.973000000     7.453000000
O    -0.084000000    -2.308000000     8.827000000
H     0.101000000    -1.631000000     8.176000000
H    -1.035000000    -2.283000000     8.935000000
O    -1.670000000     3.791000000     4.464000000
H    -2.359000000     3.132000000     4.377000000
H    -1.253000000     3.593000000     5.302000000
O    -2.457000000     6.621000000     3.363000000
H    -2.326000000     5.678000000     3.458000000
H    -1.577000000     6.993000000     3.416000000
O     2.623000000     2.187000000     6.216000000
H     2.179000000     1.980000000     5.394000000
H     2.596000000     1.371000000     6.716000000
O    -4.889000000    -0.133000000     5.809000000
H    -4.000000000    -0.203000000     5.461000000
H    -5.307000000     0.537000000     5.268000000
O    -5.042000000     2.839000000     5.176000000
H    -4.961000000     3.604000000     4.606000000
H    -4.333000000     2.258000000     4.899000000
O    -4.981000000     5.293000000     3.825000000
H    -5.781000000     5.808000000     3.721000000
H    -4.273000000     5.929000000     3.722000000
O     1.189000000     1.293000000     4.079000000
H     0.362000000     0.908000000     4.369000000
H     1.207000000     1.139000000     3.134000000
O    -0.166000000     2.777000000     6.753000000
H     0.735000000     2.522000000     6.555000000
H    -0.080000000     3.475000000     7.403000000
