201
-1253.89497
C    -3.956000000    -2.860000000     1.948000000
H    -3.755000000    -3.871000000     1.603000000
C    -4.120000000    -1.774000000     1.070000000
C    -4.386000000    -0.466000000     1.547000000
H    -4.679000000     0.306000000     0.840000000
C    -3.875000000    -1.840000000    -0.436000000
O    -3.806000000    -3.174000000    -0.942000000
H    -2.913000000    -1.338000000    -0.615000000
O    -4.820000000    -1.071000000    -1.234000000
C    -4.267000000    -0.326000000    -2.309000000
C    -4.219000000     1.036000000    -2.097000000
H    -4.655000000     1.599000000    -1.276000000
C    -3.428000000     1.849000000    -2.938000000
O    -3.329000000     3.162000000    -2.549000000
C    -2.670000000     1.366000000    -3.971000000
C    -1.851000000     2.228000000    -4.957000000
H    -1.833000000     1.837000000    -5.976000000
C    -0.435000000     2.359000000    -4.393000000
C     0.573000000     1.469000000    -4.807000000
H     0.459000000     0.768000000    -5.630000000
H    -2.263000000     3.235000000    -5.057000000
C    -2.834000000     0.033000000    -4.274000000
H    -2.251000000    -0.379000000    -5.093000000
C    -3.688000000    -0.822000000    -3.459000000
C    -3.683000000    -2.353000000    -3.630000000
H    -3.764000000    -2.683000000    -4.667000000
H    -4.635000000    -2.722000000    -3.244000000
C    -2.469000000    -3.029000000    -2.928000000
C    -1.257000000    -3.300000000    -3.562000000
H    -1.165000000    -3.005000000    -4.604000000
C    -2.649000000    -3.482000000    -1.612000000
C    -1.612000000    -4.173000000    -1.001000000
H    -1.718000000    -4.510000000     0.027000000
C    -0.354000000    -4.367000000    -1.587000000
O     0.716000000    -4.868000000    -0.846000000
C     1.722000000    -3.975000000    -0.272000000
C     2.126000000    -4.326000000     1.118000000
C     3.452000000    -4.001000000     1.499000000
H     4.113000000    -3.686000000     0.696000000
C     1.230000000    -4.673000000     2.145000000
H     0.228000000    -4.993000000     1.870000000
O     2.857000000    -4.019000000    -1.167000000
H     1.191000000    -3.012000000    -0.288000000
C    -0.170000000    -3.944000000    -2.892000000
C     1.186000000    -4.072000000    -3.561000000
H     0.934000000    -4.056000000    -4.624000000
H     1.769000000    -4.941000000    -3.249000000
C     2.053000000    -2.923000000    -3.220000000
C     2.213000000    -1.781000000    -4.024000000
H     1.579000000    -1.717000000    -4.905000000
C     2.857000000    -2.928000000    -2.067000000
C     3.513000000    -1.811000000    -1.654000000
H     3.928000000    -1.780000000    -0.650000000
C     3.484000000    -0.666000000    -2.414000000
O     4.168000000     0.410000000    -1.951000000
C     3.385000000     1.472000000    -1.332000000
C     4.100000000     1.894000000    -0.126000000
C     5.098000000     1.068000000     0.485000000
H     5.329000000     0.121000000     0.004000000
C     3.822000000     3.125000000     0.425000000
H     2.981000000     3.734000000     0.103000000
O     3.114000000     2.524000000    -2.314000000
H     2.459000000     0.997000000    -0.976000000
C     2.977000000    -0.686000000    -3.697000000
C     2.910000000     0.608000000    -4.524000000
H     2.665000000     0.341000000    -5.554000000
H     3.907000000     1.043000000    -4.616000000
C     1.795000000     1.492000000    -4.117000000
C     2.016000000     2.476000000    -3.101000000
C     1.030000000     3.465000000    -2.907000000
H     1.187000000     4.217000000    -2.139000000
C    -0.209000000     3.366000000    -3.420000000
O    -1.142000000     4.195000000    -2.856000000
C    -2.133000000     3.638000000    -1.886000000
H    -1.734000000     2.734000000    -1.403000000
C    -2.301000000     4.675000000    -0.698000000
C    -3.544000000     4.678000000    -0.069000000
H    -4.419000000     4.184000000    -0.485000000
C    -1.220000000     5.179000000    -0.005000000
H    -0.267000000     4.812000000    -0.377000000
C    -1.428000000     5.952000000     1.176000000
O    -0.375000000     6.399000000     1.891000000
C    -2.689000000     6.043000000     1.770000000
H    -2.722000000     6.575000000     2.717000000
C    -3.724000000     5.407000000     1.100000000
O    -4.979000000     5.325000000     1.701000000
C    -5.618000000     4.203000000     2.117000000
C    -4.848000000     3.112000000     2.503000000
H    -3.766000000     3.159000000     2.419000000
C    -6.907000000     4.039000000     1.846000000
H    -7.473000000     4.847000000     1.390000000
C    -7.601000000     2.883000000     2.253000000
H    -8.687000000     2.844000000     2.220000000
C    -6.862000000     1.822000000     2.839000000
H    -7.344000000     0.908000000     3.176000000
C    -5.472000000     1.981000000     2.920000000
O    -4.638000000     1.012000000     3.499000000
C    -4.375000000    -0.231000000     2.913000000
C    -4.235000000    -1.334000000     3.754000000
H    -4.455000000    -1.148000000     4.802000000
C    -4.046000000    -2.662000000     3.331000000
O    -3.824000000    -3.646000000     4.219000000
C    -2.873000000    -4.634000000     4.067000000
C    -1.550000000    -4.417000000     4.535000000
H    -1.319000000    -3.415000000     4.886000000
C    -3.140000000    -5.883000000     3.551000000
H    -4.030000000    -6.037000000     2.946000000
C    -2.247000000    -6.916000000     3.568000000
H    -2.522000000    -7.902000000     3.200000000
C    -0.943000000    -6.677000000     3.931000000
H    -0.267000000    -7.523000000     4.028000000
C    -0.559000000    -5.411000000     4.326000000
O     0.789000000    -5.091000000     4.512000000
C     1.627000000    -4.703000000     3.511000000
C     2.962000000    -4.439000000     3.793000000
H     3.271000000    -4.631000000     4.818000000
C     3.868000000    -4.070000000     2.820000000
O     5.167000000    -3.819000000     3.194000000
C     6.002000000    -2.899000000     2.482000000
C     5.945000000    -1.549000000     2.742000000
H     5.209000000    -1.156000000     3.439000000
C     6.995000000    -3.453000000     1.615000000
H     6.873000000    -4.503000000     1.361000000
C     7.895000000    -2.554000000     1.025000000
H     8.636000000    -2.923000000     0.320000000
C     7.813000000    -1.179000000     1.228000000
H     8.449000000    -0.519000000     0.643000000
C     6.784000000    -0.659000000     2.056000000
O     6.654000000     0.656000000     2.367000000
C     5.776000000     1.490000000     1.683000000
C     5.394000000     2.731000000     2.234000000
H     5.755000000     3.093000000     3.193000000
C     4.456000000     3.518000000     1.613000000
O     4.222000000     4.736000000     2.172000000
C     3.247000000     5.632000000     1.671000000
C     3.713000000     6.563000000     0.777000000
H     4.794000000     6.584000000     0.664000000
C     2.770000000     7.406000000     0.206000000
H     3.106000000     8.120000000    -0.542000000
C     1.421000000     7.260000000     0.512000000
H     0.692000000     7.886000000     0.003000000
C     0.978000000     6.379000000     1.475000000
C     1.926000000     5.473000000     1.993000000
H     1.694000000     4.620000000     2.626000000
O     2.817000000    -0.721000000     4.243000000
H     2.653000000    -0.855000000     3.310000000
H     3.101000000     0.190000000     4.309000000
O    -3.288000000     3.208000000     6.315000000
H    -2.627000000     3.364000000     6.989000000
H    -3.232000000     2.269000000     6.136000000
O     4.967000000    -0.787000000     6.550000000
H     4.624000000     0.081000000     6.340000000
H     4.428000000    -1.389000000     6.037000000
O    -2.828000000     0.393000000     6.475000000
H    -2.977000000    -0.543000000     6.609000000
H    -1.976000000     0.440000000     6.041000000
O     2.897000000     6.289000000     7.723000000
H     3.060000000     5.556000000     7.130000000
H     3.763000000     6.667000000     7.880000000
O    -2.178000000     4.395000000     4.310000000
H    -2.556000000     3.787000000     4.945000000
H    -1.323000000     4.020000000     4.098000000
O     1.571000000     0.390000000     9.256000000
H     1.985000000    -0.369000000     9.667000000
H     1.624000000     0.213000000     8.317000000
O     1.136000000    -0.646000000     6.470000000
H     1.785000000    -0.883000000     5.807000000
H     0.454000000    -0.183000000     5.983000000
O     0.363000000    -2.996000000     7.977000000
H     0.329000000    -2.147000000     7.537000000
H     1.146000000    -3.418000000     7.623000000
O    -5.587000000     1.090000000     7.205000000
H    -5.397000000     0.819000000     8.103000000
H    -4.835000000     0.784000000     6.698000000
O     1.223000000     7.329000000     4.304000000
H     0.757000000     6.563000000     4.642000000
H     0.901000000     7.428000000     3.408000000
O    -1.164000000     6.063000000     6.044000000
H    -1.510000000     5.481000000     5.368000000
H    -1.831000000     6.057000000     6.730000000
O    -1.230000000     4.653000000     9.680000000
H    -1.016000000     3.733000000     9.520000000
H    -0.546000000     4.958000000    10.276000000
O     0.787000000     4.108000000     6.668000000
H     0.713000000     5.062000000     6.657000000
H     0.326000000     3.822000000     5.880000000
O     2.688000000     2.052000000     7.382000000
H     2.879000000     2.374000000     8.263000000
H     1.995000000     2.630000000     7.061000000
O     3.621000000     1.843000000     4.916000000
H     3.348000000     1.826000000     5.833000000
H     3.500000000     2.753000000     4.646000000
O    -4.891000000     5.521000000     4.772000000
H    -3.972000000     5.263000000     4.837000000
H    -5.005000000     5.777000000     3.857000000
O    -1.010000000     2.182000000     7.575000000
H    -0.155000000     2.604000000     7.666000000
H    -0.976000000     1.753000000     6.720000000
O    -1.198000000     0.638000000     9.992000000
H    -0.254000000     0.582000000     9.844000000
H    -1.550000000     0.979000000     9.170000000
