201
-1264.97188
C    -3.534000000    -2.521000000     1.897000000
H    -3.016000000    -3.441000000     1.639000000
C    -3.896000000    -1.553000000     0.941000000
C    -4.418000000    -0.351000000     1.362000000
H    -4.722000000     0.441000000     0.683000000
C    -3.571000000    -1.778000000    -0.533000000
O    -3.568000000    -3.225000000    -0.934000000
H    -2.562000000    -1.410000000    -0.770000000
O    -4.482000000    -1.169000000    -1.533000000
C    -3.937000000    -0.488000000    -2.612000000
C    -3.965000000     0.892000000    -2.485000000
H    -4.541000000     1.448000000    -1.749000000
C    -3.160000000     1.630000000    -3.358000000
O    -2.990000000     2.957000000    -3.040000000
C    -2.422000000     1.009000000    -4.387000000
C    -1.486000000     1.849000000    -5.280000000
H    -1.315000000     1.344000000    -6.233000000
C    -0.171000000     2.043000000    -4.545000000
C     0.901000000     1.218000000    -4.879000000
H     0.680000000     0.389000000    -5.547000000
H    -2.088000000     2.758000000    -5.339000000
C    -2.446000000    -0.391000000    -4.509000000
H    -1.758000000    -0.842000000    -5.220000000
C    -3.261000000    -1.187000000    -3.642000000
C    -3.205000000    -2.681000000    -3.770000000
H    -3.149000000    -3.057000000    -4.794000000
H    -4.206000000    -3.037000000    -3.517000000
C    -2.136000000    -3.348000000    -2.897000000
C    -0.889000000    -3.606000000    -3.455000000
H    -0.608000000    -3.467000000    -4.496000000
C    -2.355000000    -3.652000000    -1.546000000
C    -1.365000000    -4.175000000    -0.732000000
H    -1.610000000    -4.499000000     0.276000000
C    -0.107000000    -4.353000000    -1.248000000
O     0.863000000    -4.973000000    -0.436000000
C     1.769000000    -4.062000000     0.101000000
C     2.091000000    -4.364000000     1.486000000
C     3.339000000    -3.942000000     1.975000000
H     4.084000000    -3.563000000     1.280000000
C     1.135000000    -4.882000000     2.386000000
H     0.190000000    -5.293000000     2.041000000
O     2.972000000    -3.922000000    -0.623000000
H     1.151000000    -3.155000000     0.180000000
C     0.155000000    -4.087000000    -2.594000000
C     1.551000000    -4.226000000    -3.183000000
H     1.639000000    -4.356000000    -4.263000000
H     1.972000000    -5.098000000    -2.679000000
C     2.445000000    -3.072000000    -2.843000000
C     2.443000000    -1.992000000    -3.719000000
H     2.009000000    -2.024000000    -4.715000000
C     3.161000000    -2.887000000    -1.647000000
C     3.847000000    -1.750000000    -1.336000000
H     4.193000000    -1.691000000    -0.308000000
C     3.908000000    -0.787000000    -2.282000000
O     4.523000000     0.410000000    -1.884000000
C     3.698000000     1.483000000    -1.500000000
C     4.159000000     2.071000000    -0.183000000
C     4.697000000     1.229000000     0.838000000
H     4.818000000     0.160000000     0.681000000
C     4.109000000     3.457000000     0.109000000
H     3.706000000     4.210000000    -0.563000000
O     3.542000000     2.483000000    -2.621000000
H     2.690000000     1.139000000    -1.226000000
C     3.119000000    -0.865000000    -3.413000000
C     3.129000000     0.242000000    -4.488000000
H     2.921000000    -0.178000000    -5.474000000
H     4.090000000     0.760000000    -4.522000000
C     2.134000000     1.306000000    -4.183000000
C     2.361000000     2.376000000    -3.269000000
C     1.366000000     3.278000000    -2.969000000
H     1.559000000     4.099000000    -2.284000000
C     0.125000000     3.094000000    -3.638000000
O    -0.865000000     3.919000000    -3.186000000
C    -1.839000000     3.363000000    -2.307000000
H    -1.440000000     2.466000000    -1.810000000
C    -2.221000000     4.359000000    -1.311000000
C    -3.493000000     4.403000000    -0.744000000
H    -4.304000000     3.841000000    -1.201000000
C    -1.192000000     4.979000000    -0.556000000
H    -0.165000000     4.832000000    -0.879000000
C    -1.491000000     5.669000000     0.654000000
O    -0.448000000     6.291000000     1.388000000
C    -2.803000000     5.727000000     1.117000000
H    -2.977000000     6.236000000     2.062000000
C    -3.804000000     5.091000000     0.462000000
O    -5.079000000     5.148000000     0.992000000
C    -5.760000000     4.114000000     1.488000000
C    -5.128000000     3.019000000     2.158000000
H    -4.044000000     3.047000000     2.236000000
C    -7.130000000     4.267000000     1.462000000
H    -7.620000000     5.125000000     1.009000000
C    -7.904000000     3.173000000     1.907000000
H    -8.986000000     3.275000000     1.873000000
C    -7.313000000     2.108000000     2.536000000
H    -7.981000000     1.386000000     2.999000000
C    -5.915000000     1.946000000     2.567000000
O    -5.269000000     0.947000000     3.265000000
C    -4.733000000    -0.176000000     2.720000000
C    -4.535000000    -1.200000000     3.647000000
H    -4.759000000    -1.116000000     4.707000000
C    -3.916000000    -2.343000000     3.234000000
O    -3.742000000    -3.302000000     4.234000000
C    -2.904000000    -4.407000000     4.064000000
C    -1.571000000    -4.336000000     4.447000000
H    -1.073000000    -3.402000000     4.694000000
C    -3.530000000    -5.640000000     3.855000000
H    -4.607000000    -5.749000000     3.756000000
C    -2.769000000    -6.831000000     3.923000000
H    -3.272000000    -7.793000000     3.873000000
C    -1.419000000    -6.751000000     4.226000000
H    -0.858000000    -7.680000000     4.172000000
C    -0.812000000    -5.523000000     4.478000000
O     0.513000000    -5.541000000     4.729000000
C     1.417000000    -4.925000000     3.792000000
C     2.737000000    -4.600000000     4.264000000
H     3.035000000    -4.750000000     5.298000000
C     3.690000000    -4.130000000     3.341000000
O     4.906000000    -3.697000000     3.922000000
C     5.706000000    -2.663000000     3.362000000
C     5.299000000    -1.389000000     3.579000000
H     4.421000000    -1.026000000     4.108000000
C     6.607000000    -3.037000000     2.364000000
H     6.838000000    -4.088000000     2.204000000
C     7.323000000    -1.990000000     1.705000000
H     8.137000000    -2.202000000     1.017000000
C     6.947000000    -0.665000000     1.913000000
H     7.462000000     0.126000000     1.375000000
C     6.011000000    -0.359000000     2.925000000
O     5.615000000     0.940000000     3.132000000
C     5.046000000     1.721000000     2.125000000
C     4.825000000     3.029000000     2.379000000
H     5.103000000     3.457000000     3.338000000
C     4.516000000     3.917000000     1.335000000
O     4.226000000     5.149000000     1.788000000
C     3.211000000     5.964000000     1.271000000
C     3.585000000     7.080000000     0.517000000
H     4.634000000     7.324000000     0.375000000
C     2.578000000     7.791000000    -0.102000000
H     2.845000000     8.571000000    -0.811000000
C     1.229000000     7.555000000     0.099000000
H     0.518000000     8.241000000    -0.354000000
C     0.844000000     6.517000000     0.966000000
C     1.861000000     5.831000000     1.624000000
H     1.644000000     5.006000000     2.299000000
O     1.589000000    -0.550000000     4.223000000
H     0.960000000    -0.496000000     3.503000000
H     1.808000000     0.361000000     4.418000000
O    -4.118000000     1.903000000     9.616000000
H    -4.309000000     1.150000000    10.176000000
H    -3.918000000     1.522000000     8.761000000
O    -3.795000000     0.107000000     7.312000000
H    -3.555000000    -0.817000000     7.383000000
H    -3.195000000     0.459000000     6.654000000
O     0.291000000     5.992000000     7.960000000
H     0.319000000     5.193000000     8.487000000
H    -0.004000000     5.700000000     7.098000000
O    -4.329000000     3.336000000     5.188000000
H    -4.145000000     4.028000000     5.823000000
H    -3.518000000     2.830000000     5.143000000
O     1.651000000    -1.217000000     9.556000000
H     1.673000000    -2.104000000     9.915000000
H     1.005000000    -1.260000000     8.851000000
O     0.198000000    -0.750000000     6.755000000
H     0.877000000    -0.812000000     6.083000000
H    -0.499000000    -0.238000000     6.345000000
O    -1.054000000    -2.731000000     8.230000000
H    -1.978000000    -2.603000000     8.016000000
H    -0.605000000    -2.007000000     7.794000000
O     2.586000000     5.227000000     4.966000000
H     3.399000000     5.382000000     4.485000000
H     2.154000000     6.081000000     4.988000000
O    -3.670000000     5.447000000     7.038000000
H    -2.964000000     5.500000000     7.681000000
H    -4.389000000     5.943000000     7.428000000
O    -1.707000000     7.233000000     5.471000000
H    -2.635000000     7.390000000     5.296000000
H    -1.592000000     6.293000000     5.328000000
O    -0.333000000     4.470000000     5.445000000
H     0.517000000     4.415000000     5.007000000
H    -0.820000000     3.714000000     5.118000000
O     2.533000000     1.967000000     7.983000000
H     1.699000000     1.977000000     8.453000000
H     3.174000000     2.270000000     8.626000000
O    -6.202000000     1.046000000     5.921000000
H    -5.784000000     1.802000000     5.507000000
H    -5.492000000     0.608000000     6.391000000
O     2.767000000     1.748000000     4.970000000
H     2.657000000     2.079000000     5.862000000
H     3.439000000     2.312000000     4.586000000
O    -3.578000000    -2.986000000     7.947000000
H    -3.472000000    -3.764000000     8.494000000
H    -4.344000000    -3.176000000     7.405000000
O    -6.645000000     5.348000000     5.044000000
H    -6.056000000     4.600000000     4.943000000
H    -7.288000000     5.060000000     5.692000000
O    -1.092000000     2.210000000     7.576000000
H    -1.266000000     1.411000000     7.079000000
H    -1.004000000     2.892000000     6.910000000
O     0.220000000     1.846000000     9.766000000
H     0.162000000     0.938000000    10.063000000
H    -0.407000000     1.903000000     9.045000000
