201
-1237.85148
C    -3.436000000    -3.823000000     1.590000000
H    -2.790000000    -4.577000000     1.147000000
C    -3.779000000    -2.687000000     0.830000000
C    -4.442000000    -1.656000000     1.495000000
H    -4.750000000    -0.746000000     0.986000000
C    -3.300000000    -2.483000000    -0.590000000
O    -2.967000000    -3.743000000    -1.138000000
H    -2.472000000    -1.760000000    -0.567000000
O    -4.378000000    -1.975000000    -1.437000000
C    -4.093000000    -0.932000000    -2.363000000
C    -4.344000000     0.355000000    -2.008000000
H    -4.858000000     0.667000000    -1.103000000
C    -3.653000000     1.376000000    -2.645000000
O    -3.723000000     2.630000000    -1.993000000
C    -2.895000000     1.167000000    -3.825000000
C    -2.223000000     2.359000000    -4.576000000
H    -2.191000000     2.110000000    -5.639000000
C    -0.913000000     2.576000000    -4.028000000
C     0.172000000     1.816000000    -4.573000000
H     0.058000000     1.048000000    -5.334000000
H    -2.820000000     3.268000000    -4.469000000
C    -2.735000000    -0.154000000    -4.256000000
H    -2.112000000    -0.351000000    -5.125000000
C    -3.327000000    -1.186000000    -3.530000000
C    -2.958000000    -2.610000000    -3.833000000
H    -2.767000000    -2.656000000    -4.907000000
H    -3.725000000    -3.384000000    -3.766000000
C    -1.750000000    -3.108000000    -3.083000000
C    -0.539000000    -3.128000000    -3.701000000
H    -0.436000000    -2.558000000    -4.621000000
C    -1.813000000    -3.659000000    -1.733000000
C    -0.671000000    -4.154000000    -1.085000000
H    -0.697000000    -4.442000000    -0.037000000
C     0.525000000    -4.298000000    -1.795000000
O     1.617000000    -4.590000000    -1.134000000
C     2.542000000    -3.545000000    -0.667000000
C     2.954000000    -3.676000000     0.797000000
C     4.303000000    -3.480000000     1.179000000
H     5.116000000    -3.225000000     0.504000000
C     1.992000000    -4.008000000     1.719000000
H     0.923000000    -4.138000000     1.571000000
O     3.663000000    -3.433000000    -1.578000000
H     2.021000000    -2.576000000    -0.644000000
C     0.596000000    -3.767000000    -3.125000000
C     1.849000000    -3.712000000    -3.894000000
H     1.737000000    -3.825000000    -4.975000000
H     2.468000000    -4.595000000    -3.722000000
C     2.616000000    -2.464000000    -3.570000000
C     2.344000000    -1.304000000    -4.320000000
H     1.776000000    -1.369000000    -5.244000000
C     3.603000000    -2.434000000    -2.512000000
C     4.161000000    -1.223000000    -2.068000000
H     4.725000000    -1.164000000    -1.141000000
C     3.752000000    -0.065000000    -2.731000000
O     4.202000000     1.129000000    -2.118000000
C     3.258000000     1.995000000    -1.499000000
C     3.778000000     2.595000000    -0.270000000
C     4.094000000     1.730000000     0.741000000
H     4.070000000     0.656000000     0.571000000
C     3.621000000     3.972000000     0.043000000
H     3.091000000     4.564000000    -0.699000000
O     2.892000000     3.039000000    -2.514000000
H     2.404000000     1.373000000    -1.195000000
C     2.894000000    -0.084000000    -3.855000000
C     2.624000000     1.191000000    -4.593000000
H     2.679000000     1.109000000    -5.680000000
H     3.444000000     1.913000000    -4.576000000
C     1.401000000     1.960000000    -3.990000000
C     1.668000000     2.866000000    -2.986000000
C     0.571000000     3.532000000    -2.365000000
H     0.695000000     4.267000000    -1.574000000
C    -0.748000000     3.365000000    -2.870000000
O    -1.794000000     3.947000000    -2.191000000
C    -2.542000000     3.092000000    -1.290000000
H    -1.971000000     2.220000000    -0.939000000
C    -2.805000000     3.866000000    -0.007000000
C    -3.975000000     3.654000000     0.707000000
H    -4.792000000     3.152000000     0.195000000
C    -1.843000000     4.688000000     0.550000000
H    -0.880000000     4.776000000     0.053000000
C    -2.011000000     5.318000000     1.792000000
O    -1.132000000     6.225000000     2.375000000
C    -3.150000000     4.947000000     2.562000000
H    -3.363000000     5.411000000     3.522000000
C    -4.140000000     4.149000000     2.001000000
O    -5.303000000     3.921000000     2.760000000
C    -6.054000000     2.745000000     2.528000000
C    -5.526000000     1.590000000     3.088000000
H    -4.683000000     1.552000000     3.773000000
C    -7.018000000     2.601000000     1.549000000
H    -7.456000000     3.516000000     1.159000000
C    -7.578000000     1.382000000     1.276000000
H    -8.419000000     1.314000000     0.591000000
C    -7.175000000     0.289000000     1.990000000
H    -7.750000000    -0.633000000     1.939000000
C    -6.101000000     0.366000000     2.795000000
O    -5.632000000    -0.758000000     3.443000000
C    -4.909000000    -1.776000000     2.797000000
C    -4.592000000    -2.904000000     3.526000000
H    -4.860000000    -2.896000000     4.580000000
C    -3.787000000    -3.897000000     2.912000000
O    -3.304000000    -4.899000000     3.704000000
C    -2.075000000    -5.479000000     3.467000000
C    -0.913000000    -4.752000000     3.730000000
H    -0.920000000    -3.689000000     3.960000000
C    -2.010000000    -6.874000000     3.399000000
H    -2.990000000    -7.328000000     3.279000000
C    -0.789000000    -7.520000000     3.480000000
H    -0.629000000    -8.595000000     3.466000000
C     0.387000000    -6.762000000     3.643000000
H     1.344000000    -7.267000000     3.752000000
C     0.315000000    -5.372000000     3.657000000
O     1.450000000    -4.654000000     4.017000000
C     2.387000000    -4.285000000     3.024000000
C     3.710000000    -4.038000000     3.455000000
H     3.982000000    -4.120000000     4.505000000
C     4.661000000    -3.619000000     2.550000000
O     5.851000000    -3.137000000     3.082000000
C     6.256000000    -1.832000000     2.889000000
C     5.362000000    -0.799000000     2.912000000
H     4.293000000    -0.884000000     3.086000000
C     7.569000000    -1.618000000     2.560000000
H     8.284000000    -2.436000000     2.589000000
C     8.021000000    -0.354000000     2.181000000
H     9.066000000    -0.235000000     1.908000000
C     7.158000000     0.735000000     2.156000000
H     7.511000000     1.744000000     1.959000000
C     5.838000000     0.518000000     2.583000000
O     4.995000000     1.522000000     2.921000000
C     4.421000000     2.303000000     2.006000000
C     4.252000000     3.643000000     2.333000000
H     4.432000000     4.079000000     3.312000000
C     3.788000000     4.491000000     1.326000000
O     3.556000000     5.858000000     1.625000000
C     2.400000000     6.533000000     1.373000000
C     2.330000000     7.553000000     0.387000000
H     3.206000000     7.919000000    -0.143000000
C     0.995000000     7.957000000    -0.075000000
H     0.923000000     8.645000000    -0.914000000
C    -0.151000000     7.389000000     0.559000000
H    -1.135000000     7.775000000     0.306000000
C     0.000000000     6.532000000     1.656000000
C     1.272000000     6.139000000     2.060000000
H     1.480000000     5.457000000     2.880000000
O     5.071000000    -1.471000000     7.101000000
H     5.573000000    -1.156000000     6.349000000
H     5.674000000    -1.394000000     7.841000000
O    -4.507000000     2.144000000     6.815000000
H    -4.232000000     1.770000000     5.978000000
H    -5.409000000     1.845000000     6.927000000
O     2.772000000    -4.173000000     8.410000000
H     3.315000000    -3.499000000     8.819000000
H     2.130000000    -3.684000000     7.896000000
O     2.565000000     0.667000000     7.114000000
H     3.505000000     0.689000000     7.296000000
H     2.506000000     0.700000000     6.159000000
O    -0.495000000    -3.800000000     7.138000000
H    -0.447000000    -4.756000000     7.174000000
H     0.406000000    -3.521000000     6.975000000
O    -0.959000000     6.478000000     5.963000000
H    -0.522000000     5.665000000     5.713000000
H    -1.196000000     6.351000000     6.882000000
O     3.776000000     5.729000000     5.474000000
H     4.657000000     5.575000000     5.133000000
H     3.289000000     4.937000000     5.244000000
O    -1.269000000    -1.588000000     5.689000000
H    -1.099000000    -2.221000000     6.386000000
H    -0.430000000    -1.497000000     5.238000000
O     1.965000000    -2.416000000     6.715000000
H     1.664000000    -1.791000000     6.055000000
H     2.836000000    -2.105000000     6.961000000
O     2.557000000     0.089000000    10.266000000
H     2.069000000    -0.090000000     9.463000000
H     2.672000000    -0.769000000    10.673000000
O     4.737000000     3.294000000     8.211000000
H     4.780000000     2.937000000     7.324000000
H     5.651000000     3.437000000     8.456000000
O    -3.190000000    -4.709000000     6.428000000
H    -3.299000000    -4.757000000     5.478000000
H    -2.384000000    -4.207000000     6.551000000
O    -2.353000000     0.862000000     4.558000000
H    -1.975000000     0.063000000     4.924000000
H    -1.613000000     1.463000000     4.478000000
O    -0.229000000     3.122000000     6.205000000
H    -1.012000000     3.519000000     6.588000000
H    -0.074000000     2.341000000     6.736000000
O     5.454000000     1.597000000     5.850000000
H     6.353000000     1.795000000     5.590000000
H     4.977000000     1.521000000     5.023000000
O    -0.106000000     0.687000000     7.438000000
H     0.840000000     0.831000000     7.405000000
H    -0.273000000     0.040000000     6.753000000
O     2.444000000     4.403000000     8.693000000
H     3.308000000     4.016000000     8.550000000
H     1.886000000     3.993000000     8.032000000
O    -1.381000000     0.630000000     9.781000000
H    -1.439000000    -0.303000000     9.987000000
H    -1.004000000     0.658000000     8.902000000
O     2.165000000     3.642000000     4.534000000
H     1.264000000     3.580000000     4.850000000
H     2.444000000     2.732000000     4.428000000
