201
-1251.60812
C    -1.993000000    -4.219000000     1.710000000
H    -1.020000000    -4.483000000     1.301000000
C    -2.993000000    -3.672000000     0.915000000
C    -4.155000000    -3.255000000     1.597000000
H    -4.936000000    -2.723000000     1.060000000
C    -2.731000000    -3.357000000    -0.535000000
O    -2.013000000    -4.453000000    -1.188000000
H    -1.956000000    -2.577000000    -0.529000000
O    -3.869000000    -3.073000000    -1.237000000
C    -3.823000000    -1.908000000    -2.023000000
C    -4.347000000    -0.744000000    -1.519000000
H    -4.851000000    -0.726000000    -0.555000000
C    -4.093000000     0.432000000    -2.194000000
O    -4.445000000     1.623000000    -1.546000000
C    -3.400000000     0.410000000    -3.486000000
C    -3.301000000     1.798000000    -4.220000000
H    -3.264000000     1.636000000    -5.299000000
C    -1.978000000     2.427000000    -3.745000000
C    -0.801000000     2.125000000    -4.387000000
H    -0.791000000     1.473000000    -5.257000000
H    -4.149000000     2.383000000    -3.858000000
C    -3.048000000    -0.808000000    -4.055000000
H    -2.709000000    -0.940000000    -5.080000000
C    -3.173000000    -1.997000000    -3.298000000
C    -2.570000000    -3.302000000    -3.732000000
H    -2.686000000    -3.379000000    -4.815000000
H    -3.177000000    -4.159000000    -3.432000000
C    -1.121000000    -3.599000000    -3.269000000
C    -0.105000000    -3.028000000    -3.952000000
H    -0.253000000    -2.634000000    -4.954000000
C    -0.958000000    -4.173000000    -2.001000000
C     0.331000000    -4.245000000    -1.473000000
H     0.661000000    -4.603000000    -0.501000000
C     1.396000000    -3.764000000    -2.182000000
O     2.597000000    -3.840000000    -1.558000000
C     3.145000000    -2.589000000    -1.081000000
C     3.665000000    -2.738000000     0.379000000
C     4.238000000    -1.704000000     1.003000000
H     4.346000000    -0.733000000     0.527000000
C     3.535000000    -3.930000000     1.111000000
H     2.951000000    -4.768000000     0.737000000
O     4.122000000    -2.032000000    -1.928000000
H     2.293000000    -1.893000000    -1.046000000
C     1.183000000    -3.138000000    -3.428000000
C     2.412000000    -2.699000000    -4.202000000
H     2.301000000    -2.837000000    -5.280000000
H     3.253000000    -3.364000000    -3.994000000
C     2.827000000    -1.296000000    -3.845000000
C     2.302000000    -0.242000000    -4.594000000
H     1.651000000    -0.431000000    -5.444000000
C     3.687000000    -1.074000000    -2.819000000
C     3.839000000     0.260000000    -2.417000000
H     4.403000000     0.498000000    -1.519000000
C     3.125000000     1.295000000    -2.928000000
O     3.442000000     2.541000000    -2.545000000
C     2.475000000     3.189000000    -1.743000000
C     3.151000000     3.948000000    -0.633000000
C     4.389000000     3.606000000    -0.188000000
H     4.943000000     2.776000000    -0.619000000
C     2.470000000     4.937000000     0.026000000
H     1.455000000     5.213000000    -0.247000000
O     1.683000000     4.078000000    -2.469000000
H     1.855000000     2.410000000    -1.277000000
C     2.324000000     1.045000000    -4.076000000
C     1.626000000     2.224000000    -4.778000000
H     1.261000000     1.911000000    -5.758000000
H     2.383000000     2.951000000    -5.081000000
C     0.433000000     2.661000000    -4.018000000
C     0.428000000     3.571000000    -2.944000000
C    -0.712000000     3.840000000    -2.225000000
H    -0.663000000     4.481000000    -1.349000000
C    -1.933000000     3.327000000    -2.647000000
O    -2.922000000     3.465000000    -1.713000000
C    -3.354000000     2.348000000    -0.952000000
H    -2.468000000     1.703000000    -1.037000000
C    -3.507000000     2.656000000     0.499000000
C    -4.460000000     1.938000000     1.285000000
H    -5.229000000     1.276000000     0.896000000
C    -2.598000000     3.546000000     1.128000000
H    -1.750000000     3.879000000     0.535000000
C    -2.788000000     3.946000000     2.433000000
O    -1.992000000     4.901000000     3.039000000
C    -3.719000000     3.247000000     3.158000000
H    -3.849000000     3.458000000     4.216000000
C    -4.522000000     2.237000000     2.598000000
O    -5.563000000     1.787000000     3.350000000
C    -6.159000000     0.600000000     3.217000000
C    -5.417000000    -0.546000000     3.390000000
H    -4.333000000    -0.472000000     3.408000000
C    -7.569000000     0.551000000     3.237000000
H    -8.209000000     1.428000000     3.194000000
C    -8.201000000    -0.684000000     3.196000000
H    -9.287000000    -0.678000000     3.150000000
C    -7.439000000    -1.861000000     3.251000000
H    -7.851000000    -2.854000000     3.411000000
C    -6.052000000    -1.826000000     3.370000000
O    -5.466000000    -3.034000000     3.611000000
C    -4.351000000    -3.436000000     2.957000000
C    -3.324000000    -3.986000000     3.741000000
H    -3.361000000    -4.092000000     4.822000000
C    -2.134000000    -4.384000000     3.079000000
O    -0.993000000    -4.675000000     3.805000000
C     0.053000000    -5.505000000     3.367000000
C     1.291000000    -4.952000000     3.439000000
H     1.471000000    -3.907000000     3.677000000
C    -0.179000000    -6.846000000     2.956000000
H    -1.141000000    -7.311000000     3.156000000
C     0.923000000    -7.648000000     2.573000000
H     0.853000000    -8.668000000     2.203000000
C     2.184000000    -7.094000000     2.651000000
H     3.032000000    -7.728000000     2.407000000
C     2.372000000    -5.709000000     3.085000000
O     3.654000000    -5.201000000     3.105000000
C     4.024000000    -4.041000000     2.408000000
C     4.606000000    -2.919000000     3.010000000
H     5.039000000    -2.998000000     4.004000000
C     4.717000000    -1.788000000     2.311000000
O     5.176000000    -0.610000000     2.873000000
C     5.969000000     0.305000000     2.197000000
C     5.705000000     1.677000000     2.297000000
H     4.782000000     2.063000000     2.721000000
C     7.189000000    -0.155000000     1.670000000
H     7.386000000    -1.210000000     1.842000000
C     8.050000000     0.789000000     1.133000000
H     8.940000000     0.396000000     0.647000000
C     7.723000000     2.150000000     0.991000000
H     8.279000000     2.902000000     0.437000000
C     6.517000000     2.586000000     1.589000000
O     6.136000000     3.921000000     1.568000000
C     4.919000000     4.249000000     0.978000000
C     4.206000000     5.260000000     1.629000000
H     4.646000000     5.777000000     2.478000000
C     2.974000000     5.620000000     1.134000000
O     2.324000000     6.647000000     1.821000000
C     0.918000000     6.716000000     1.855000000
C     0.315000000     7.770000000     1.107000000
H     0.921000000     8.490000000     0.563000000
C    -1.031000000     7.825000000     1.107000000
H    -1.607000000     8.547000000     0.535000000
C    -1.795000000     6.844000000     1.613000000
H    -2.874000000     6.777000000     1.497000000
C    -1.202000000     5.825000000     2.377000000
C     0.134000000     5.721000000     2.397000000
H     0.772000000     5.031000000     2.944000000
O    -2.510000000     4.002000000     6.309000000
H    -2.480000000     4.076000000     7.263000000
H    -1.591000000     3.964000000     6.043000000
O     2.623000000    -2.491000000     5.910000000
H     2.145000000    -1.684000000     5.717000000
H     3.540000000    -2.270000000     5.748000000
O     3.614000000     0.753000000     7.016000000
H     2.810000000     0.879000000     6.512000000
H     4.317000000     0.984000000     6.408000000
O     2.068000000    -4.473000000     7.660000000
H     2.261000000    -5.088000000     6.953000000
H     2.176000000    -3.609000000     7.261000000
O    -0.174000000     0.137000000     7.287000000
H    -0.991000000     0.533000000     6.985000000
H     0.477000000     0.408000000     6.639000000
O    -0.858000000    -2.160000000     5.482000000
H    -0.584000000    -1.533000000     6.151000000
H    -0.127000000    -2.775000000     5.416000000
O     0.155000000     3.885000000     5.472000000
H     0.861000000     3.306000000     5.184000000
H     0.548000000     4.758000000     5.476000000
O     4.439000000     3.343000000     7.997000000
H     4.562000000     3.375000000     7.048000000
H     4.435000000     2.409000000     8.207000000
O     6.089000000     1.654000000     5.523000000
H     5.859000000     2.500000000     5.139000000
H     6.990000000     1.499000000     5.239000000
O    -1.670000000    -0.474000000     3.289000000
H    -1.393000000    -1.342000000     3.583000000
H    -1.075000000    -0.265000000     2.569000000
O     4.489000000    -1.779000000     8.786000000
H     4.408000000    -0.982000000     8.261000000
H     5.432000000    -1.906000000     8.884000000
O    -0.002000000     1.576000000    10.045000000
H     0.754000000     0.992000000     9.996000000
H    -0.525000000     1.357000000     9.274000000
O     6.749000000    -0.063000000     7.391000000
H     7.160000000     0.506000000     8.042000000
H     6.433000000     0.536000000     6.715000000
O     7.251000000    -1.395000000     4.334000000
H     7.814000000    -0.631000000     4.456000000
H     6.517000000    -1.070000000     3.812000000
O     2.251000000    -0.188000000     9.752000000
H     2.892000000    -0.138000000     9.043000000
H     1.997000000    -1.110000000     9.780000000
O    -3.940000000    -0.023000000     7.468000000
H    -3.364000000     0.360000000     6.807000000
H    -4.047000000    -0.934000000     7.195000000
O    -2.148000000     0.852000000     5.460000000
H    -1.864000000     0.314000000     4.721000000
H    -2.338000000     1.708000000     5.074000000
O     2.128000000     6.420000000     4.855000000
H     2.446000000     6.990000000     4.155000000
H     1.221000000     6.693000000     4.994000000
O     3.748000000     4.017000000     5.142000000
H     3.434000000     4.890000000     4.908000000
H     3.073000000     3.424000000     4.812000000
