201
-1265.13243
C    -4.140000000     3.341000000    -1.783000000
H    -3.787000000     3.145000000    -2.792000000
C    -3.211000000     3.858000000    -0.827000000
C    -3.689000000     4.232000000     0.430000000
H    -2.942000000     4.487000000     1.177000000
C    -1.747000000     3.938000000    -1.139000000
O    -1.618000000     4.243000000    -2.512000000
H    -1.269000000     2.967000000    -0.944000000
O    -1.107000000     5.019000000    -0.471000000
C     0.098000000     4.718000000     0.055000000
C     0.134000000     4.122000000     1.327000000
H    -0.771000000     4.028000000     1.922000000
C     1.364000000     3.611000000     1.818000000
O     1.278000000     3.135000000     3.060000000
C     2.567000000     3.883000000     1.123000000
C     3.892000000     3.578000000     1.794000000
H     4.676000000     4.077000000     1.220000000
C     4.279000000     2.098000000     1.729000000
C     5.007000000     1.599000000     0.662000000
H     5.373000000     2.333000000    -0.051000000
H     3.889000000     3.961000000     2.817000000
C     2.528000000     4.423000000    -0.177000000
H     3.408000000     4.459000000    -0.815000000
C     1.259000000     4.792000000    -0.694000000
C     1.104000000     5.093000000    -2.199000000
H     2.011000000     5.581000000    -2.561000000
H     0.430000000     5.928000000    -2.400000000
C     0.749000000     3.905000000    -3.053000000
C     1.678000000     3.195000000    -3.724000000
H     2.730000000     3.390000000    -3.531000000
C    -0.608000000     3.558000000    -3.162000000
C    -0.967000000     2.448000000    -4.012000000
H    -2.017000000     2.202000000    -4.141000000
C     0.009000000     1.634000000    -4.483000000
O    -0.445000000     0.382000000    -4.839000000
C    -0.021000000    -0.879000000    -4.186000000
C    -1.252000000    -1.808000000    -3.978000000
C    -1.006000000    -3.130000000    -3.876000000
H    -0.027000000    -3.542000000    -4.104000000
C    -2.467000000    -1.230000000    -3.650000000
H    -2.653000000    -0.162000000    -3.569000000
O     1.218000000    -1.502000000    -4.738000000
H     0.213000000    -0.624000000    -3.142000000
C     1.381000000     1.957000000    -4.343000000
C     2.464000000     1.087000000    -4.831000000
H     3.296000000     1.704000000    -5.176000000
H     2.225000000     0.719000000    -5.831000000
C     2.974000000    -0.080000000    -3.897000000
C     3.942000000     0.272000000    -2.953000000
H     4.343000000     1.274000000    -2.821000000
C     2.330000000    -1.301000000    -3.981000000
C     2.716000000    -2.255000000    -3.076000000
H     2.120000000    -3.159000000    -2.991000000
C     3.705000000    -1.957000000    -2.105000000
O     3.695000000    -2.928000000    -1.106000000
C     3.258000000    -2.606000000     0.236000000
C     2.662000000    -3.806000000     0.959000000
C     2.043000000    -4.828000000     0.193000000
H     1.939000000    -4.674000000    -0.878000000
C     2.712000000    -3.902000000     2.337000000
H     3.133000000    -3.036000000     2.843000000
O     4.365000000    -2.023000000     1.042000000
H     2.435000000    -1.882000000     0.145000000
C     4.362000000    -0.692000000    -2.059000000
C     5.482000000    -0.376000000    -0.994000000
H     6.297000000     0.161000000    -1.484000000
H     5.970000000    -1.325000000    -0.763000000
C     5.057000000     0.169000000     0.343000000
C     4.480000000    -0.690000000     1.252000000
C     3.831000000    -0.182000000     2.359000000
H     3.469000000    -0.882000000     3.108000000
C     3.751000000     1.183000000     2.637000000
O     2.936000000     1.491000000     3.674000000
C     1.571000000     1.729000000     3.216000000
H     1.414000000     1.069000000     2.350000000
C     0.562000000     1.083000000     4.195000000
C    -0.770000000     1.462000000     4.279000000
H    -1.026000000     2.281000000     3.612000000
C     0.880000000    -0.033000000     5.017000000
H     1.896000000    -0.410000000     4.944000000
C    -0.038000000    -0.616000000     5.889000000
O     0.237000000    -1.726000000     6.620000000
C    -1.305000000    -0.165000000     5.894000000
H    -2.017000000    -0.646000000     6.560000000
C    -1.702000000     0.917000000     5.119000000
O    -3.015000000     1.273000000     5.060000000
C    -3.516000000     2.515000000     4.747000000
C    -4.082000000     2.761000000     3.507000000
H    -3.975000000     1.993000000     2.746000000
C    -3.566000000     3.575000000     5.687000000
H    -3.082000000     3.561000000     6.660000000
C    -4.171000000     4.779000000     5.355000000
H    -4.251000000     5.556000000     6.111000000
C    -4.823000000     4.932000000     4.140000000
H    -5.340000000     5.859000000     3.905000000
C    -4.747000000     3.973000000     3.173000000
O    -5.554000000     4.127000000     2.034000000
C    -5.046000000     3.991000000     0.765000000
C    -5.884000000     3.490000000    -0.171000000
H    -6.914000000     3.317000000     0.134000000
C    -5.447000000     3.260000000    -1.451000000
O    -6.356000000     2.705000000    -2.337000000
C    -6.090000000     1.791000000    -3.302000000
C    -5.735000000     0.508000000    -2.859000000
H    -5.642000000     0.269000000    -1.803000000
C    -6.232000000     2.073000000    -4.618000000
H    -6.506000000     3.045000000    -5.020000000
C    -5.884000000     1.094000000    -5.583000000
H    -6.014000000     1.344000000    -6.633000000
C    -5.440000000    -0.148000000    -5.168000000
H    -5.216000000    -0.934000000    -5.885000000
C    -5.363000000    -0.423000000    -3.827000000
O    -4.875000000    -1.666000000    -3.401000000
C    -3.581000000    -2.106000000    -3.648000000
C    -3.370000000    -3.484000000    -3.647000000
H    -4.186000000    -4.163000000    -3.414000000
C    -2.071000000    -4.001000000    -3.616000000
O    -1.826000000    -5.311000000    -3.776000000
C    -0.775000000    -5.987000000    -3.233000000
C    -0.681000000    -6.073000000    -1.835000000
H    -1.451000000    -5.578000000    -1.250000000
C     0.185000000    -6.530000000    -4.057000000
H     0.078000000    -6.357000000    -5.124000000
C     1.226000000    -7.234000000    -3.489000000
H     2.006000000    -7.690000000    -4.094000000
C     1.378000000    -7.334000000    -2.124000000
H     2.277000000    -7.826000000    -1.761000000
C     0.451000000    -6.731000000    -1.319000000
O     0.563000000    -6.714000000     0.041000000
C     1.432000000    -5.904000000     0.811000000
C     1.635000000    -6.093000000     2.184000000
H     1.217000000    -7.013000000     2.583000000
C     2.265000000    -5.068000000     2.958000000
O     2.428000000    -5.296000000     4.322000000
C     2.504000000    -4.198000000     5.186000000
C     3.557000000    -4.162000000     6.112000000
H     4.302000000    -4.953000000     6.112000000
C     3.481000000    -3.245000000     7.188000000
H     4.366000000    -3.237000000     7.819000000
C     2.466000000    -2.299000000     7.287000000
H     2.392000000    -1.555000000     8.076000000
C     1.381000000    -2.481000000     6.423000000
C     1.379000000    -3.386000000     5.392000000
H     0.519000000    -3.525000000     4.743000000
O    -5.468000000    -7.232000000     3.631000000
H    -5.185000000    -7.198000000     4.545000000
H    -5.481000000    -6.316000000     3.351000000
O    -1.388000000    -8.239000000     1.824000000
H    -2.180000000    -7.713000000     1.714000000
H    -0.720000000    -7.775000000     1.320000000
O    -3.566000000    -2.873000000     5.835000000
H    -3.645000000    -3.812000000     5.667000000
H    -3.450000000    -2.483000000     4.969000000
O    -7.813000000    -3.476000000     1.649000000
H    -7.125000000    -4.116000000     1.834000000
H    -8.185000000    -3.269000000     2.507000000
O    -5.135000000    -0.725000000     6.558000000
H    -4.360000000    -1.170000000     6.215000000
H    -5.806000000    -1.406000000     6.594000000
O    -6.513000000    -6.288000000    -0.788000000
H    -5.640000000    -5.951000000    -0.587000000
H    -6.913000000    -5.608000000    -1.329000000
O    -4.170000000    -1.899000000    -0.700000000
H    -3.753000000    -1.394000000    -1.398000000
H    -4.871000000    -1.332000000    -0.380000000
O    -4.221000000    -6.841000000     6.042000000
H    -3.454000000    -6.415000000     5.659000000
H    -4.798000000    -6.119000000     6.289000000
O    -5.063000000    -4.452000000     3.537000000
H    -5.230000000    -3.708000000     4.115000000
H    -4.181000000    -4.300000000     3.199000000
O    -5.521000000    -4.638000000     6.850000000
H    -5.654000000    -3.922000000     6.228000000
H    -6.405000000    -4.929000000     7.073000000
O    -4.176000000    -4.672000000     0.597000000
H    -4.293000000    -3.852000000     0.117000000
H    -3.571000000    -4.450000000     1.305000000
O    -7.425000000    -1.663000000    -0.372000000
H    -7.465000000    -2.392000000     0.247000000
H    -8.324000000    -1.569000000    -0.688000000
O    -2.332000000    -5.249000000     4.537000000
H    -1.754000000    -5.993000000     4.367000000
H    -2.298000000    -4.731000000     3.733000000
O    -6.457000000     0.445000000     1.236000000
H    -6.137000000     0.161000000     2.092000000
H    -6.728000000    -0.363000000     0.801000000
O    -5.575000000    -0.450000000     3.725000000
H    -5.388000000    -0.015000000     4.556000000
H    -4.838000000    -1.048000000     3.596000000
O    -3.995000000    -7.257000000     1.175000000
H    -4.537000000    -7.346000000     1.960000000
H    -4.167000000    -6.367000000     0.866000000
O    -0.786000000    -7.372000000     4.520000000
H    -0.481000000    -7.909000000     5.251000000
H    -1.139000000    -8.001000000     3.891000000
O    -6.523000000    -2.767000000     5.037000000
H    -6.387000000    -2.013000000     4.463000000
H    -7.468000000    -2.788000000     5.185000000
O    -2.915000000    -3.252000000     8.538000000
H    -2.760000000    -2.882000000     7.669000000
H    -3.452000000    -4.027000000     8.375000000
