201
-1237.11573
C    -2.077000000    -3.878000000     2.259000000
H    -1.130000000    -4.370000000     2.055000000
C    -2.856000000    -3.281000000     1.241000000
C    -4.048000000    -2.657000000     1.561000000
H    -4.661000000    -2.055000000     0.895000000
C    -2.473000000    -3.224000000    -0.225000000
O    -1.616000000    -4.416000000    -0.584000000
H    -1.770000000    -2.381000000    -0.292000000
O    -3.575000000    -3.059000000    -1.146000000
C    -3.369000000    -2.163000000    -2.139000000
C    -3.910000000    -0.883000000    -1.983000000
H    -4.631000000    -0.690000000    -1.193000000
C    -3.587000000     0.093000000    -2.877000000
O    -4.086000000     1.347000000    -2.670000000
C    -2.766000000    -0.137000000    -3.992000000
C    -2.421000000     0.869000000    -5.027000000
H    -2.090000000     0.431000000    -5.971000000
C    -1.206000000     1.682000000    -4.423000000
C     0.149000000     1.290000000    -4.691000000
H     0.373000000     0.574000000    -5.478000000
H    -3.191000000     1.604000000    -5.271000000
C    -2.160000000    -1.408000000    -4.117000000
H    -1.538000000    -1.581000000    -4.992000000
C    -2.432000000    -2.376000000    -3.134000000
C    -1.818000000    -3.744000000    -3.373000000
H    -1.717000000    -3.898000000    -4.449000000
H    -2.577000000    -4.420000000    -2.974000000
C    -0.507000000    -3.939000000    -2.679000000
C     0.683000000    -3.766000000    -3.393000000
H     0.774000000    -3.440000000    -4.426000000
C    -0.512000000    -4.285000000    -1.327000000
C     0.678000000    -4.487000000    -0.715000000
H     0.753000000    -4.830000000     0.314000000
C     1.874000000    -4.190000000    -1.336000000
O     3.016000000    -4.182000000    -0.596000000
C     3.421000000    -2.955000000     0.010000000
C     3.942000000    -3.102000000     1.429000000
C     4.946000000    -2.168000000     1.874000000
H     5.402000000    -1.476000000     1.170000000
C     3.255000000    -3.870000000     2.406000000
H     2.326000000    -4.348000000     2.109000000
O     4.435000000    -2.382000000    -0.827000000
H     2.522000000    -2.325000000     0.067000000
C     1.899000000    -3.854000000    -2.687000000
C     3.208000000    -3.320000000    -3.283000000
H     3.134000000    -3.440000000    -4.365000000
H     4.064000000    -3.957000000    -3.052000000
C     3.437000000    -1.846000000    -2.926000000
C     3.062000000    -0.879000000    -3.851000000
H     2.555000000    -1.166000000    -4.769000000
C     4.070000000    -1.443000000    -1.734000000
C     4.205000000    -0.044000000    -1.505000000
H     4.527000000     0.222000000    -0.501000000
C     3.712000000     0.903000000    -2.352000000
O     3.719000000     2.182000000    -1.960000000
C     2.534000000     2.803000000    -1.477000000
C     2.695000000     3.563000000    -0.128000000
C     3.754000000     3.299000000     0.711000000
H     4.538000000     2.568000000     0.531000000
C     1.703000000     4.490000000     0.310000000
H     0.779000000     4.633000000    -0.245000000
O     1.992000000     3.628000000    -2.513000000
H     1.830000000     1.976000000    -1.305000000
C     3.200000000     0.439000000    -3.521000000
C     2.610000000     1.431000000    -4.562000000
H     2.694000000     0.919000000    -5.523000000
H     3.246000000     2.298000000    -4.754000000
C     1.204000000     1.890000000    -4.126000000
C     1.028000000     3.023000000    -3.283000000
C    -0.304000000     3.390000000    -2.977000000
H    -0.386000000     4.244000000    -2.310000000
C    -1.394000000     2.817000000    -3.556000000
O    -2.611000000     3.204000000    -3.084000000
C    -3.290000000     2.382000000    -2.135000000
H    -2.519000000     1.912000000    -1.507000000
C    -4.119000000     3.274000000    -1.140000000
C    -4.964000000     2.581000000    -0.239000000
H    -5.273000000     1.563000000    -0.462000000
C    -3.688000000     4.501000000    -0.770000000
H    -2.943000000     5.060000000    -1.332000000
C    -4.200000000     5.124000000     0.380000000
O    -3.827000000     6.415000000     0.746000000
C    -5.104000000     4.491000000     1.202000000
H    -5.377000000     5.032000000     2.105000000
C    -5.352000000     3.135000000     0.959000000
O    -5.951000000     2.442000000     1.939000000
C    -6.492000000     1.181000000     1.850000000
C    -6.059000000     0.210000000     2.743000000
H    -5.489000000     0.480000000     3.628000000
C    -7.371000000     0.893000000     0.741000000
H    -7.596000000     1.612000000    -0.042000000
C    -7.727000000    -0.470000000     0.600000000
H    -8.370000000    -0.737000000    -0.234000000
C    -7.208000000    -1.453000000     1.452000000
H    -7.571000000    -2.455000000     1.239000000
C    -6.378000000    -1.096000000     2.528000000
O    -5.722000000    -2.046000000     3.291000000
C    -4.513000000    -2.547000000     2.896000000
C    -3.704000000    -3.098000000     3.879000000
H    -4.036000000    -2.929000000     4.900000000
C    -2.542000000    -3.748000000     3.567000000
O    -1.726000000    -4.265000000     4.614000000
C    -0.569000000    -5.052000000     4.445000000
C     0.703000000    -4.541000000     4.658000000
H     0.901000000    -3.487000000     4.835000000
C    -0.631000000    -6.322000000     3.877000000
H    -1.624000000    -6.720000000     3.686000000
C     0.480000000    -7.119000000     3.548000000
H     0.291000000    -8.120000000     3.168000000
C     1.713000000    -6.581000000     3.799000000
H     2.585000000    -7.094000000     3.403000000
C     1.848000000    -5.301000000     4.376000000
O     3.094000000    -4.757000000     4.552000000
C     3.643000000    -3.828000000     3.707000000
C     4.639000000    -2.958000000     4.144000000
H     4.946000000    -3.123000000     5.174000000
C     5.278000000    -2.078000000     3.265000000
O     6.081000000    -1.047000000     3.791000000
C     6.366000000     0.145000000     3.139000000
C     5.463000000     1.224000000     3.344000000
H     4.448000000     1.014000000     3.671000000
C     7.603000000     0.300000000     2.530000000
H     8.309000000    -0.527000000     2.541000000
C     7.963000000     1.587000000     2.018000000
H     8.953000000     1.810000000     1.629000000
C     6.948000000     2.543000000     1.989000000
H     7.258000000     3.531000000     1.658000000
C     5.741000000     2.398000000     2.647000000
O     4.868000000     3.434000000     2.836000000
C     3.850000000     3.825000000     1.970000000
C     2.924000000     4.830000000     2.331000000
H     2.952000000     5.147000000     3.370000000
C     1.829000000     5.093000000     1.525000000
O     0.810000000     5.858000000     2.026000000
C    -0.161000000     6.446000000     1.190000000
C     0.154000000     7.395000000     0.204000000
H     1.193000000     7.694000000     0.093000000
C    -0.852000000     8.084000000    -0.538000000
H    -0.558000000     8.724000000    -1.366000000
C    -2.170000000     7.777000000    -0.333000000
H    -2.924000000     8.398000000    -0.809000000
C    -2.516000000     6.850000000     0.644000000
C    -1.549000000     6.185000000     1.380000000
H    -1.769000000     5.482000000     2.179000000
O     1.988000000     0.120000000     4.666000000
H     2.188000000     1.031000000     4.883000000
H     1.194000000     0.170000000     4.133000000
O    -0.403000000     2.493000000     9.949000000
H    -0.343000000     1.966000000     9.152000000
H    -1.262000000     2.277000000    10.314000000
O     1.413000000     4.184000000     8.464000000
H     1.473000000     4.851000000     9.148000000
H     0.891000000     3.484000000     8.857000000
O    -0.130000000     1.659000000     7.261000000
H    -0.358000000     1.277000000     6.414000000
H     0.683000000     1.220000000     7.512000000
O    -2.448000000     3.207000000     8.174000000
H    -1.655000000     2.768000000     7.867000000
H    -2.946000000     3.387000000     7.377000000
O    -3.582000000     3.530000000     5.671000000
H    -3.077000000     2.884000000     5.177000000
H    -3.411000000     4.360000000     5.224000000
O    -2.630000000     5.910000000     5.007000000
H    -1.987000000     5.310000000     4.630000000
H    -2.106000000     6.620000000     5.380000000
O    -0.990000000    -2.130000000     6.474000000
H    -1.865000000    -2.377000000     6.176000000
H    -0.818000000    -1.292000000     6.045000000
O     1.875000000     2.828000000     5.368000000
H     1.097000000     2.834000000     5.926000000
H     2.555000000     3.242000000     5.900000000
O     2.151000000     0.696000000     8.580000000
H     1.834000000    -0.157000000     8.282000000
H     3.052000000     0.742000000     8.261000000
O     1.390000000    -3.984000000     8.488000000
H     1.713000000    -3.187000000     8.067000000
H     0.810000000    -3.670000000     9.182000000
O    -0.691000000    -2.242000000     9.785000000
H    -0.156000000    -2.340000000    10.572000000
H    -1.050000000    -1.357000000     9.848000000
O    -4.364000000    -1.262000000     8.100000000
H    -4.083000000    -0.735000000     7.352000000
H    -5.133000000    -1.737000000     7.783000000
O    -1.728000000     5.714000000     9.216000000
H    -1.609000000     6.283000000     8.456000000
H    -1.889000000     4.847000000     8.843000000
O     3.852000000     4.201000000     6.904000000
H     3.116000000     4.147000000     7.515000000
H     4.564000000     4.577000000     7.421000000
O    -0.459000000     4.494000000     4.190000000
H    -0.895000000     3.642000000     4.174000000
H     0.474000000     4.286000000     4.133000000
O    -5.165000000     1.846000000     7.042000000
H    -4.754000000     2.621000000     6.660000000
H    -4.627000000     1.115000000     6.737000000
O    -3.578000000    -0.262000000     5.456000000
H    -2.703000000     0.089000000     5.621000000
H    -3.649000000    -0.288000000     4.501000000
O     1.809000000    -1.724000000     6.754000000
H     0.889000000    -1.979000000     6.692000000
H     1.918000000    -1.054000000     6.079000000
