201
-1254.87484
C    -2.769000000    -4.147000000     1.830000000
H    -1.878000000    -4.687000000     1.519000000
C    -3.550000000    -3.447000000     0.893000000
C    -4.655000000    -2.649000000     1.412000000
H    -5.128000000    -1.935000000     0.742000000
C    -2.957000000    -3.253000000    -0.510000000
O    -2.327000000    -4.402000000    -0.987000000
H    -2.189000000    -2.466000000    -0.459000000
O    -3.873000000    -2.746000000    -1.452000000
C    -3.580000000    -1.594000000    -2.131000000
C    -4.046000000    -0.337000000    -1.817000000
H    -4.628000000    -0.201000000    -0.909000000
C    -3.772000000     0.760000000    -2.689000000
O    -4.028000000     2.036000000    -2.320000000
C    -3.021000000     0.526000000    -3.874000000
C    -2.548000000     1.679000000    -4.747000000
H    -2.404000000     1.466000000    -5.808000000
C    -1.256000000     2.369000000    -4.302000000
C    -0.025000000     1.844000000    -4.680000000
H    -0.048000000     0.900000000    -5.219000000
H    -3.424000000     2.331000000    -4.721000000
C    -2.624000000    -0.740000000    -4.163000000
H    -2.061000000    -0.874000000    -5.083000000
C    -2.919000000    -1.834000000    -3.351000000
C    -2.445000000    -3.297000000    -3.676000000
H    -2.440000000    -3.427000000    -4.760000000
H    -3.281000000    -3.946000000    -3.407000000
C    -1.160000000    -3.774000000    -3.094000000
C     0.110000000    -3.525000000    -3.619000000
H     0.070000000    -3.224000000    -4.662000000
C    -1.230000000    -4.288000000    -1.830000000
C    -0.006000000    -4.602000000    -1.129000000
H    -0.073000000    -4.892000000    -0.084000000
C     1.221000000    -4.260000000    -1.633000000
O     2.247000000    -4.277000000    -0.773000000
C     2.869000000    -3.113000000    -0.397000000
C     3.309000000    -3.145000000     1.078000000
C     4.511000000    -2.546000000     1.522000000
H     5.070000000    -1.878000000     0.872000000
C     2.397000000    -3.702000000     2.007000000
H     1.412000000    -4.092000000     1.762000000
O     4.006000000    -2.765000000    -1.250000000
H     2.190000000    -2.264000000    -0.565000000
C     1.309000000    -3.678000000    -2.948000000
C     2.571000000    -3.321000000    -3.609000000
H     2.485000000    -3.419000000    -4.693000000
H     3.343000000    -4.023000000    -3.286000000
C     2.973000000    -1.932000000    -3.198000000
C     2.597000000    -0.893000000    -4.028000000
H     1.936000000    -0.978000000    -4.887000000
C     3.807000000    -1.740000000    -2.139000000
C     4.075000000    -0.389000000    -1.794000000
H     4.495000000    -0.216000000    -0.807000000
C     3.641000000     0.668000000    -2.615000000
O     3.953000000     1.900000000    -2.114000000
C     2.862000000     2.710000000    -1.534000000
C     3.443000000     3.390000000    -0.276000000
C     4.401000000     2.832000000     0.536000000
H     4.938000000     1.901000000     0.373000000
C     2.811000000     4.519000000     0.261000000
H     2.198000000     5.162000000    -0.366000000
O     2.234000000     3.658000000    -2.459000000
H     2.221000000     1.919000000    -1.118000000
C     2.887000000     0.451000000    -3.738000000
C     2.459000000     1.561000000    -4.634000000
H     2.306000000     1.195000000    -5.651000000
H     3.266000000     2.287000000    -4.746000000
C     1.193000000     2.326000000    -4.174000000
C     1.142000000     3.313000000    -3.241000000
C    -0.019000000     3.818000000    -2.778000000
H     0.109000000     4.487000000    -1.931000000
C    -1.241000000     3.322000000    -3.232000000
O    -2.370000000     3.609000000    -2.501000000
C    -2.962000000     2.697000000    -1.581000000
H    -2.219000000     1.959000000    -1.245000000
C    -3.406000000     3.362000000    -0.282000000
C    -4.141000000     2.658000000     0.650000000
H    -4.436000000     1.633000000     0.442000000
C    -3.102000000     4.712000000    -0.047000000
H    -2.531000000     5.258000000    -0.794000000
C    -3.218000000     5.241000000     1.182000000
O    -2.705000000     6.495000000     1.442000000
C    -3.861000000     4.484000000     2.158000000
H    -4.040000000     4.745000000     3.198000000
C    -4.324000000     3.191000000     1.875000000
O    -5.033000000     2.550000000     2.863000000
C    -5.851000000     1.465000000     2.585000000
C    -5.524000000     0.221000000     3.045000000
H    -4.610000000     0.080000000     3.616000000
C    -7.025000000     1.700000000     1.887000000
H    -7.333000000     2.672000000     1.510000000
C    -7.799000000     0.582000000     1.575000000
H    -8.704000000     0.745000000     0.995000000
C    -7.502000000    -0.676000000     2.070000000
H    -8.230000000    -1.475000000     1.962000000
C    -6.352000000    -0.830000000     2.796000000
O    -6.049000000    -2.065000000     3.293000000
C    -5.058000000    -2.860000000     2.750000000
C    -4.390000000    -3.737000000     3.552000000
H    -4.672000000    -3.847000000     4.596000000
C    -3.269000000    -4.410000000     3.126000000
O    -2.632000000    -5.238000000     4.017000000
C    -1.341000000    -5.667000000     3.868000000
C    -0.312000000    -4.876000000     4.279000000
H    -0.476000000    -3.902000000     4.734000000
C    -1.111000000    -6.925000000     3.212000000
H    -1.943000000    -7.517000000     2.839000000
C     0.233000000    -7.302000000     2.970000000
H     0.393000000    -8.252000000     2.466000000
C     1.241000000    -6.500000000     3.479000000
H     2.298000000    -6.688000000     3.303000000
C     0.956000000    -5.260000000     4.036000000
O     1.978000000    -4.382000000     4.325000000
C     2.734000000    -3.759000000     3.379000000
C     4.001000000    -3.270000000     3.765000000
H     4.221000000    -3.419000000     4.819000000
C     4.903000000    -2.617000000     2.873000000
O     6.004000000    -2.031000000     3.364000000
C     6.568000000    -0.896000000     2.766000000
C     5.765000000     0.287000000     2.828000000
H     4.727000000     0.256000000     3.149000000
C     7.879000000    -0.765000000     2.321000000
H     8.486000000    -1.663000000     2.245000000
C     8.349000000     0.428000000     1.891000000
H     9.404000000     0.503000000     1.642000000
C     7.573000000     1.621000000     1.964000000
H     8.010000000     2.584000000     1.711000000
C     6.250000000     1.503000000     2.476000000
O     5.537000000     2.700000000     2.700000000
C     4.746000000     3.387000000     1.818000000
C     4.032000000     4.474000000     2.296000000
H     4.169000000     4.772000000     3.332000000
C     2.971000000     5.026000000     1.530000000
O     2.142000000     6.115000000     1.938000000
C     1.032000000     6.647000000     1.313000000
C     1.203000000     7.672000000     0.404000000
H     2.246000000     7.945000000     0.262000000
C     0.081000000     8.343000000    -0.126000000
H     0.179000000     9.123000000    -0.876000000
C    -1.194000000     7.941000000     0.242000000
H    -2.048000000     8.414000000    -0.237000000
C    -1.374000000     6.865000000     1.097000000
C    -0.254000000     6.265000000     1.720000000
H    -0.332000000     5.483000000     2.471000000
O     2.352000000     0.402000000     2.342000000
H     2.534000000     0.117000000     3.238000000
H     1.795000000    -0.287000000     1.980000000
O    -0.510000000    -4.139000000     8.781000000
H    -0.885000000    -4.964000000     8.471000000
H     0.369000000    -4.119000000     8.403000000
O    -5.029000000     0.740000000     8.566000000
H    -4.099000000     0.584000000     8.403000000
H    -5.475000000     0.308000000     7.838000000
O    -0.957000000     4.066000000     7.726000000
H    -1.664000000     3.976000000     8.365000000
H    -0.332000000     4.660000000     8.141000000
O    -3.566000000     3.145000000     5.470000000
H    -2.755000000     3.645000000     5.380000000
H    -3.317000000     2.244000000     5.263000000
O    -2.606000000     0.293000000     7.524000000
H    -1.892000000     0.360000000     8.157000000
H    -2.168000000     0.219000000     6.676000000
O    -1.332000000     4.682000000     5.201000000
H    -1.311000000     4.717000000     6.158000000
H    -0.413000000     4.606000000     4.945000000
O     0.294000000    -1.576000000     7.693000000
H    -0.379000000    -2.194000000     7.975000000
H     0.178000000    -1.511000000     6.745000000
O    -4.739000000    -4.745000000     7.410000000
H    -5.078000000    -4.087000000     8.016000000
H    -3.998000000    -4.316000000     6.981000000
O     2.856000000    -1.458000000     7.164000000
H     1.994000000    -1.580000000     7.562000000
H     3.334000000    -2.260000000     7.377000000
O     2.349000000    -0.449000000     4.784000000
H     2.801000000    -0.871000000     5.514000000
H     1.419000000    -0.593000000     4.962000000
O     0.189000000     1.781000000     6.634000000
H    -0.473000000     1.595000000     5.968000000
H     0.015000000     2.684000000     6.899000000
O     3.291000000     2.239000000     4.893000000
H     4.035000000     2.342000000     4.300000000
H     3.023000000     1.327000000     4.786000000
O     1.358000000     4.419000000     4.719000000
H     1.898000000     3.687000000     5.017000000
H     1.230000000     4.258000000     3.785000000
O     1.041000000     3.030000000     2.286000000
H     1.777000000     2.425000000     2.193000000
H     0.275000000     2.516000000     2.031000000
O    -5.672000000     3.248000000     7.423000000
H    -5.552000000     2.569000000     8.087000000
H    -4.906000000     3.166000000     6.855000000
O    -0.595000000     0.313000000     9.371000000
H    -0.283000000     1.171000000     9.084000000
H    -0.072000000    -0.312000000     8.869000000
O    -2.729000000    -2.816000000     6.521000000
H    -1.879000000    -2.849000000     6.083000000
H    -2.941000000    -1.883000000     6.562000000
O     2.947000000     1.924000000     7.989000000
H     3.293000000     1.057000000     8.201000000
H     2.477000000     1.800000000     7.165000000
