201
-1239.62810
C    -2.326000000    -4.527000000     1.927000000
H    -1.831000000    -5.270000000     1.307000000
C    -3.013000000    -3.494000000     1.236000000
C    -3.523000000    -2.506000000     2.105000000
H    -3.896000000    -1.582000000     1.671000000
C    -2.844000000    -3.161000000    -0.255000000
O    -2.487000000    -4.376000000    -1.052000000
H    -2.146000000    -2.316000000    -0.349000000
O    -4.112000000    -2.712000000    -0.762000000
C    -3.991000000    -1.663000000    -1.636000000
C    -4.306000000    -0.383000000    -1.233000000
H    -4.661000000    -0.230000000    -0.217000000
C    -4.219000000     0.728000000    -2.033000000
O    -4.487000000     1.999000000    -1.518000000
C    -3.740000000     0.627000000    -3.338000000
C    -3.386000000     1.874000000    -4.163000000
H    -3.426000000     1.456000000    -5.171000000
C    -2.051000000     2.486000000    -3.782000000
C    -0.921000000     2.108000000    -4.534000000
H    -1.123000000     1.471000000    -5.392000000
H    -4.166000000     2.638000000    -4.184000000
C    -3.419000000    -0.636000000    -3.834000000
H    -3.031000000    -0.770000000    -4.840000000
C    -3.506000000    -1.757000000    -2.960000000
C    -3.185000000    -3.139000000    -3.479000000
H    -3.297000000    -3.071000000    -4.563000000
H    -3.916000000    -3.813000000    -3.026000000
C    -1.689000000    -3.550000000    -3.125000000
C    -0.603000000    -3.068000000    -3.936000000
H    -0.729000000    -2.495000000    -4.850000000
C    -1.459000000    -4.175000000    -1.884000000
C    -0.138000000    -4.208000000    -1.416000000
H     0.069000000    -4.515000000    -0.394000000
C     0.921000000    -3.988000000    -2.251000000
O     2.223000000    -4.187000000    -1.795000000
C     2.882000000    -2.981000000    -1.264000000
C     3.586000000    -3.131000000     0.072000000
C     4.647000000    -2.272000000     0.434000000
H     5.055000000    -1.523000000    -0.238000000
C     3.061000000    -4.091000000     1.005000000
H     2.332000000    -4.851000000     0.734000000
O     3.728000000    -2.332000000    -2.235000000
H     2.162000000    -2.166000000    -1.097000000
C     0.682000000    -3.406000000    -3.543000000
C     1.806000000    -2.880000000    -4.433000000
H     1.499000000    -2.769000000    -5.475000000
H     2.649000000    -3.569000000    -4.515000000
C     2.273000000    -1.509000000    -3.994000000
C     1.699000000    -0.477000000    -4.655000000
H     0.956000000    -0.690000000    -5.419000000
C     3.277000000    -1.301000000    -3.089000000
C     3.636000000    -0.062000000    -2.791000000
H     4.442000000     0.074000000    -2.075000000
C     3.101000000     1.061000000    -3.395000000
O     3.411000000     2.243000000    -2.813000000
C     2.460000000     2.846000000    -1.927000000
C     3.133000000     3.573000000    -0.809000000
C     4.296000000     3.087000000    -0.253000000
H     4.900000000     2.302000000    -0.700000000
C     2.561000000     4.776000000    -0.271000000
H     1.669000000     5.192000000    -0.732000000
O     1.697000000     3.772000000    -2.659000000
H     1.822000000     2.142000000    -1.373000000
C     2.096000000     0.862000000    -4.378000000
C     1.475000000     2.060000000    -5.038000000
H     1.129000000     1.793000000    -6.038000000
H     2.198000000     2.870000000    -5.154000000
C     0.313000000     2.535000000    -4.186000000
C     0.478000000     3.359000000    -3.096000000
C    -0.646000000     3.780000000    -2.399000000
H    -0.420000000     4.471000000    -1.591000000
C    -1.916000000     3.412000000    -2.806000000
O    -2.870000000     3.754000000    -1.857000000
C    -3.346000000     2.752000000    -0.889000000
H    -2.540000000     2.034000000    -0.677000000
C    -3.682000000     3.360000000     0.484000000
C    -4.817000000     3.023000000     1.132000000
H    -5.634000000     2.504000000     0.639000000
C    -2.585000000     3.957000000     1.128000000
H    -1.682000000     4.185000000     0.567000000
C    -2.679000000     4.207000000     2.483000000
O    -1.686000000     4.765000000     3.282000000
C    -3.833000000     3.781000000     3.139000000
H    -3.781000000     3.814000000     4.225000000
C    -4.899000000     3.162000000     2.505000000
O    -5.916000000     2.636000000     3.190000000
C    -6.047000000     1.311000000     3.310000000
C    -4.988000000     0.499000000     3.789000000
H    -4.031000000     0.877000000     4.139000000
C    -7.219000000     0.720000000     2.873000000
H    -8.030000000     1.279000000     2.413000000
C    -7.409000000    -0.678000000     2.828000000
H    -8.296000000    -1.161000000     2.424000000
C    -6.350000000    -1.478000000     3.336000000
H    -6.457000000    -2.560000000     3.365000000
C    -5.177000000    -0.911000000     3.821000000
O    -4.168000000    -1.749000000     4.314000000
C    -3.639000000    -2.687000000     3.461000000
C    -2.986000000    -3.754000000     4.112000000
H    -2.997000000    -3.839000000     5.196000000
C    -2.302000000    -4.688000000     3.334000000
O    -1.486000000    -5.681000000     3.942000000
C    -0.285000000    -6.181000000     3.536000000
C     0.830000000    -5.361000000     3.457000000
H     0.789000000    -4.297000000     3.675000000
C    -0.099000000    -7.521000000     3.091000000
H    -0.958000000    -8.187000000     3.106000000
C     1.133000000    -8.000000000     2.688000000
H     1.227000000    -9.010000000     2.297000000
C     2.213000000    -7.120000000     2.583000000
H     3.164000000    -7.534000000     2.256000000
C     2.082000000    -5.813000000     3.063000000
O     3.184000000    -5.080000000     3.172000000
C     3.582000000    -4.112000000     2.303000000
C     4.556000000    -3.102000000     2.676000000
H     4.931000000    -3.021000000     3.693000000
C     5.095000000    -2.287000000     1.755000000
O     6.162000000    -1.513000000     2.159000000
C     6.651000000    -0.344000000     1.580000000
C     5.935000000     0.851000000     1.774000000
H     5.038000000     0.834000000     2.388000000
C     7.896000000    -0.348000000     0.910000000
H     8.472000000    -1.252000000     0.729000000
C     8.439000000     0.840000000     0.661000000
H     9.430000000     0.910000000     0.221000000
C     7.763000000     2.086000000     0.904000000
H     8.195000000     3.011000000     0.530000000
C     6.481000000     2.079000000     1.379000000
O     5.904000000     3.305000000     1.582000000
C     4.789000000     3.708000000     0.918000000
C     4.200000000     4.802000000     1.489000000
H     4.657000000     5.240000000     2.373000000
C     3.050000000     5.386000000     0.955000000
O     2.496000000     6.465000000     1.621000000
C     1.225000000     6.639000000     1.905000000
C     0.750000000     7.935000000     1.962000000
H     1.382000000     8.764000000     1.655000000
C    -0.484000000     8.172000000     2.550000000
H    -0.794000000     9.196000000     2.743000000
C    -1.298000000     7.131000000     2.919000000
H    -2.270000000     7.375000000     3.339000000
C    -0.905000000     5.807000000     2.780000000
C     0.436000000     5.598000000     2.304000000
H     0.835000000     4.587000000     2.300000000
O     0.223000000     1.944000000     2.850000000
H    -0.593000000     1.964000000     3.350000000
H     0.304000000     1.035000000     2.560000000
O    -1.572000000    -5.762000000     6.857000000
H    -1.686000000    -5.863000000     5.912000000
H    -0.908000000    -5.079000000     6.947000000
O     2.236000000     2.869000000     4.575000000
H     2.009000000     3.384000000     5.349000000
H     1.408000000     2.764000000     4.106000000
O     4.191000000    -2.161000000    10.350000000
H     3.812000000    -1.837000000     9.533000000
H     5.126000000    -2.245000000    10.163000000
O     1.840000000     0.870000000     9.973000000
H     1.820000000     0.292000000     9.210000000
H     1.848000000     0.276000000    10.724000000
O     0.811000000     1.298000000     6.393000000
H     0.522000000     0.386000000     6.348000000
H     1.662000000     1.301000000     5.955000000
O     5.850000000    -1.743000000     5.783000000
H     6.737000000    -1.919000000     5.468000000
H     5.563000000    -0.982000000     5.279000000
O    -1.845000000    -1.001000000     7.200000000
H    -1.259000000    -1.514000000     6.642000000
H    -2.057000000    -0.228000000     6.677000000
O     4.191000000    -5.310000000     7.701000000
H     4.662000000    -6.050000000     7.319000000
H     3.829000000    -4.842000000     6.949000000
O     0.377000000    -3.972000000     6.471000000
H     0.032000000    -3.224000000     5.983000000
H     1.325000000    -3.838000000     6.478000000
O     4.150000000     0.864000000     4.711000000
H     3.658000000     1.685000000     4.688000000
H     3.479000000     0.182000000     4.703000000
O     1.570000000     4.042000000     7.250000000
H     1.116000000     3.199000000     7.251000000
H     0.921000000     4.664000000     7.580000000
O    -4.070000000    -1.778000000     8.925000000
H    -3.942000000    -2.700000000     8.701000000
H    -3.563000000    -1.300000000     8.269000000
O     5.257000000     0.587000000     8.299000000
H     5.015000000     0.882000000     9.177000000
H     5.881000000    -0.123000000     8.449000000
O     2.216000000    -4.360000000     9.608000000
H     1.470000000    -4.164000000     9.040000000
H     2.943000000    -4.512000000     9.005000000
O     3.031000000    -0.745000000     7.958000000
H     3.014000000    -1.025000000     7.043000000
H     3.795000000    -0.172000000     8.018000000
O    -1.530000000     2.079000000     5.199000000
H    -0.741000000     1.658000000     5.541000000
H    -2.059000000     2.262000000     5.976000000
O     6.426000000     1.221000000     5.825000000
H     5.622000000     1.028000000     5.343000000
H     6.144000000     1.313000000     6.735000000
O     3.185000000    -3.173000000     6.116000000
H     2.665000000    -2.514000000     5.655000000
H     3.990000000    -2.716000000     6.359000000
