201
-1250.33194
C    -3.053000000    -3.682000000     2.014000000
H    -2.320000000    -4.388000000     1.633000000
C    -3.541000000    -2.741000000     1.095000000
C    -4.422000000    -1.770000000     1.532000000
H    -4.824000000    -1.024000000     0.852000000
C    -3.099000000    -2.672000000    -0.366000000
O    -2.657000000    -3.948000000    -0.853000000
H    -2.245000000    -1.981000000    -0.416000000
O    -4.212000000    -2.107000000    -1.108000000
C    -3.965000000    -1.208000000    -2.110000000
C    -4.285000000     0.145000000    -1.944000000
H    -4.882000000     0.441000000    -1.084000000
C    -3.775000000     1.172000000    -2.736000000
O    -3.912000000     2.443000000    -2.288000000
C    -3.019000000     0.772000000    -3.820000000
C    -2.394000000     1.768000000    -4.686000000
H    -2.230000000     1.422000000    -5.709000000
C    -1.029000000     2.221000000    -4.125000000
C     0.175000000     1.658000000    -4.666000000
H     0.067000000     0.925000000    -5.461000000
H    -3.073000000     2.622000000    -4.723000000
C    -2.703000000    -0.607000000    -4.007000000
H    -2.033000000    -0.780000000    -4.846000000
C    -3.157000000    -1.620000000    -3.202000000
C    -2.815000000    -3.033000000    -3.533000000
H    -2.784000000    -3.022000000    -4.624000000
H    -3.622000000    -3.737000000    -3.323000000
C    -1.524000000    -3.515000000    -2.855000000
C    -0.320000000    -3.482000000    -3.547000000
H    -0.283000000    -3.218000000    -4.601000000
C    -1.538000000    -3.917000000    -1.539000000
C    -0.348000000    -4.388000000    -0.936000000
H    -0.440000000    -4.692000000     0.104000000
C     0.817000000    -4.357000000    -1.621000000
O     1.948000000    -4.486000000    -0.840000000
C     2.653000000    -3.291000000    -0.369000000
C     3.077000000    -3.520000000     1.058000000
C     4.251000000    -2.870000000     1.444000000
H     4.874000000    -2.450000000     0.659000000
C     2.272000000    -4.216000000     2.028000000
H     1.376000000    -4.702000000     1.650000000
O     3.762000000    -3.094000000    -1.286000000
H     1.901000000    -2.491000000    -0.428000000
C     0.873000000    -3.812000000    -2.893000000
C     2.170000000    -3.643000000    -3.646000000
H     2.034000000    -3.795000000    -4.719000000
H     2.815000000    -4.484000000    -3.384000000
C     2.881000000    -2.305000000    -3.354000000
C     2.621000000    -1.195000000    -4.122000000
H     2.080000000    -1.382000000    -5.046000000
C     3.581000000    -2.082000000    -2.160000000
C     3.914000000    -0.819000000    -1.729000000
H     4.528000000    -0.675000000    -0.843000000
C     3.624000000     0.259000000    -2.571000000
O     4.077000000     1.485000000    -2.108000000
C     3.088000000     2.268000000    -1.518000000
C     3.626000000     2.899000000    -0.199000000
C     4.737000000     2.383000000     0.422000000
H     5.362000000     1.625000000    -0.043000000
C     2.966000000     4.013000000     0.383000000
H     1.992000000     4.379000000     0.069000000
O     2.630000000     3.262000000    -2.433000000
H     2.219000000     1.648000000    -1.248000000
C     2.973000000     0.113000000    -3.747000000
C     2.594000000     1.241000000    -4.644000000
H     2.468000000     0.695000000    -5.581000000
H     3.405000000     1.971000000    -4.687000000
C     1.414000000     1.987000000    -4.138000000
C     1.480000000     2.903000000    -3.128000000
C     0.344000000     3.600000000    -2.755000000
H     0.449000000     4.403000000    -2.030000000
C    -0.935000000     3.292000000    -3.203000000
O    -1.981000000     3.887000000    -2.578000000
C    -2.748000000     3.062000000    -1.609000000
H    -2.045000000     2.276000000    -1.296000000
C    -3.219000000     3.879000000    -0.396000000
C    -4.399000000     3.456000000     0.307000000
H    -4.967000000     2.617000000    -0.088000000
C    -2.402000000     4.851000000     0.183000000
H    -1.413000000     5.098000000    -0.195000000
C    -2.713000000     5.466000000     1.370000000
O    -2.010000000     6.469000000     1.890000000
C    -3.880000000     5.121000000     2.022000000
H    -4.164000000     5.562000000     2.975000000
C    -4.715000000     4.070000000     1.516000000
O    -5.865000000     3.757000000     2.214000000
C    -6.458000000     2.475000000     2.159000000
C    -5.785000000     1.469000000     2.783000000
H    -4.894000000     1.619000000     3.387000000
C    -7.679000000     2.290000000     1.539000000
H    -8.258000000     3.115000000     1.131000000
C    -8.205000000     0.978000000     1.561000000
H    -9.244000000     0.836000000     1.276000000
C    -7.519000000    -0.061000000     2.144000000
H    -7.938000000    -1.037000000     2.373000000
C    -6.274000000     0.151000000     2.691000000
O    -5.540000000    -0.798000000     3.440000000
C    -4.703000000    -1.727000000     2.918000000
C    -4.189000000    -2.640000000     3.787000000
H    -4.390000000    -2.566000000     4.853000000
C    -3.323000000    -3.626000000     3.353000000
O    -2.742000000    -4.509000000     4.252000000
C    -1.663000000    -5.283000000     3.926000000
C    -0.410000000    -4.690000000     4.049000000
H    -0.415000000    -3.611000000     4.179000000
C    -1.719000000    -6.612000000     3.652000000
H    -2.635000000    -7.042000000     3.254000000
C    -0.582000000    -7.367000000     3.667000000
H    -0.631000000    -8.343000000     3.190000000
C     0.675000000    -6.785000000     3.898000000
H     1.554000000    -7.420000000     3.822000000
C     0.781000000    -5.468000000     4.108000000
O     2.011000000    -4.875000000     4.338000000
C     2.745000000    -4.215000000     3.369000000
C     3.898000000    -3.525000000     3.709000000
H     4.287000000    -3.601000000     4.721000000
C     4.707000000    -2.937000000     2.735000000
O     5.894000000    -2.430000000     3.097000000
C     6.435000000    -1.404000000     2.398000000
C     6.001000000    -0.062000000     2.661000000
H     5.246000000     0.116000000     3.422000000
C     7.485000000    -1.660000000     1.515000000
H     7.754000000    -2.700000000     1.345000000
C     8.189000000    -0.592000000     0.890000000
H     9.072000000    -0.748000000     0.276000000
C     7.672000000     0.744000000     1.085000000
H     8.191000000     1.555000000     0.580000000
C     6.626000000     0.977000000     1.942000000
O     6.224000000     2.276000000     2.220000000
C     5.137000000     2.812000000     1.602000000
C     4.442000000     3.846000000     2.221000000
H     4.707000000     3.974000000     3.268000000
C     3.424000000     4.486000000     1.617000000
O     2.696000000     5.454000000     2.370000000
C     1.702000000     6.246000000     1.861000000
C     2.036000000     7.097000000     0.757000000
H     3.061000000     7.243000000     0.427000000
C     0.969000000     7.758000000     0.055000000
H     1.106000000     8.419000000    -0.797000000
C    -0.315000000     7.574000000     0.440000000
H    -1.175000000     8.090000000     0.022000000
C    -0.612000000     6.842000000     1.566000000
C     0.328000000     6.098000000     2.234000000
H     0.058000000     5.382000000     3.007000000
O    -0.198000000     2.750000000     2.556000000
H    -0.412000000     1.969000000     2.045000000
H    -0.993000000     2.933000000     3.057000000
O    -1.382000000    -4.034000000     8.285000000
H    -0.744000000    -4.739000000     8.395000000
H    -2.205000000    -4.484000000     8.092000000
O    -5.866000000     1.326000000     6.762000000
H    -5.542000000     0.983000000     7.595000000
H    -5.226000000     1.027000000     6.116000000
O    -2.935000000     3.655000000     7.316000000
H    -2.145000000     3.248000000     7.672000000
H    -3.656000000     3.203000000     7.755000000
O    -4.583000000    -1.364000000     8.194000000
H    -3.837000000    -1.862000000     7.859000000
H    -5.184000000    -2.030000000     8.529000000
O     1.848000000     2.489000000     4.848000000
H     1.100000000     2.517000000     5.444000000
H     1.462000000     2.546000000     3.975000000
O     3.708000000     4.057000000     5.840000000
H     3.115000000     3.521000000     5.315000000
H     4.381000000     3.446000000     6.140000000
O    -0.511000000     1.856000000     6.823000000
H    -0.640000000     0.990000000     6.435000000
H    -0.669000000     1.725000000     7.758000000
O     4.257000000    -2.724000000     7.285000000
H     3.387000000    -2.706000000     6.887000000
H     4.622000000    -1.858000000     7.103000000
O    -3.508000000     0.957000000     5.484000000
H    -3.002000000     0.313000000     4.988000000
H    -3.125000000     0.938000000     6.361000000
O    -1.480000000    -1.288000000     7.324000000
H    -1.346000000    -0.970000000     6.431000000
H    -1.348000000    -2.234000000     7.264000000
O     3.029000000    -0.222000000     5.887000000
H     2.910000000     0.721000000     5.767000000
H     2.279000000    -0.616000000     5.441000000
O    -0.554000000     4.416000000     5.975000000
H    -0.786000000     3.738000000     6.609000000
H    -0.943000000     4.117000000     5.153000000
O     1.330000000    -4.952000000     8.057000000
H     1.450000000    -4.160000000     7.534000000
H     0.854000000    -5.550000000     7.480000000
O     1.962000000     3.736000000     8.504000000
H     1.973000000     3.480000000     7.582000000
H     1.172000000     3.326000000     8.857000000
O     3.217000000    -0.216000000     8.815000000
H     3.372000000    -1.103000000     9.139000000
H     2.748000000    -0.341000000     7.990000000
O    -2.526000000     3.167000000     4.061000000
H    -2.815000000     2.479000000     4.660000000
H    -3.205000000     3.839000000     4.124000000
O    -0.985000000    -1.155000000    10.106000000
H    -1.260000000    -1.155000000     9.190000000
H    -0.714000000    -2.057000000    10.276000000
O     1.549000000    -2.985000000     6.254000000
H     1.169000000    -2.188000000     5.884000000
H     1.653000000    -3.572000000     5.505000000
