201
-1255.00450
C    -2.355000000    -4.080000000     1.683000000
H    -1.663000000    -4.644000000     1.063000000
C    -3.102000000    -3.115000000     1.079000000
C    -4.029000000    -2.365000000     1.806000000
H    -4.662000000    -1.631000000     1.315000000
C    -2.958000000    -2.863000000    -0.445000000
O    -2.457000000    -3.972000000    -1.146000000
H    -2.177000000    -2.089000000    -0.460000000
O    -4.218000000    -2.357000000    -0.968000000
C    -4.116000000    -1.279000000    -1.856000000
C    -4.367000000    -0.015000000    -1.304000000
H    -4.861000000     0.052000000    -0.338000000
C    -4.132000000     1.079000000    -2.019000000
O    -4.320000000     2.257000000    -1.400000000
C    -3.429000000     1.033000000    -3.246000000
C    -3.077000000     2.270000000    -4.056000000
H    -2.987000000     2.008000000    -5.112000000
C    -1.691000000     2.871000000    -3.610000000
C    -0.536000000     2.546000000    -4.372000000
H    -0.584000000     1.836000000    -5.194000000
H    -3.694000000     3.134000000    -3.799000000
C    -3.124000000    -0.200000000    -3.817000000
H    -2.741000000    -0.269000000    -4.832000000
C    -3.434000000    -1.320000000    -3.118000000
C    -3.034000000    -2.664000000    -3.757000000
H    -3.121000000    -2.705000000    -4.845000000
H    -3.723000000    -3.433000000    -3.403000000
C    -1.693000000    -3.106000000    -3.320000000
C    -0.588000000    -2.855000000    -4.115000000
H    -0.752000000    -2.275000000    -5.019000000
C    -1.472000000    -3.735000000    -2.044000000
C    -0.201000000    -4.038000000    -1.677000000
H    -0.072000000    -4.597000000    -0.753000000
C     0.892000000    -3.751000000    -2.477000000
O     2.049000000    -3.914000000    -1.868000000
C     2.786000000    -2.816000000    -1.391000000
C     3.463000000    -3.285000000    -0.080000000
C     4.713000000    -2.804000000     0.201000000
H     5.219000000    -2.246000000    -0.582000000
C     2.789000000    -4.070000000     0.926000000
H     1.746000000    -4.343000000     0.791000000
O     3.765000000    -2.382000000    -2.409000000
H     2.050000000    -2.033000000    -1.156000000
C     0.746000000    -3.076000000    -3.678000000
C     1.923000000    -2.657000000    -4.587000000
H     1.508000000    -2.433000000    -5.572000000
H     2.722000000    -3.401000000    -4.623000000
C     2.456000000    -1.326000000    -4.108000000
C     2.120000000    -0.091000000    -4.751000000
H     1.373000000    -0.016000000    -5.538000000
C     3.347000000    -1.219000000    -3.055000000
C     3.927000000    -0.050000000    -2.674000000
H     4.709000000    -0.032000000    -1.919000000
C     3.377000000     1.080000000    -3.202000000
O     3.698000000     2.172000000    -2.462000000
C     2.745000000     2.755000000    -1.554000000
C     3.362000000     3.274000000    -0.285000000
C     4.372000000     2.502000000     0.347000000
H     4.689000000     1.589000000    -0.150000000
C     2.814000000     4.387000000     0.372000000
H     1.986000000     5.010000000     0.042000000
O     2.125000000     3.812000000    -2.311000000
H     2.089000000     1.912000000    -1.288000000
C     2.523000000     1.112000000    -4.238000000
C     1.935000000     2.418000000    -4.803000000
H     1.574000000     2.267000000    -5.822000000
H     2.746000000     3.146000000    -4.865000000
C     0.726000000     2.849000000    -3.946000000
C     0.841000000     3.603000000    -2.738000000
C    -0.262000000     3.981000000    -1.960000000
H    -0.217000000     4.541000000    -1.030000000
C    -1.542000000     3.620000000    -2.432000000
O    -2.631000000     3.851000000    -1.617000000
C    -3.147000000     2.809000000    -0.759000000
H    -2.362000000     2.037000000    -0.742000000
C    -3.452000000     3.240000000     0.652000000
C    -4.615000000     2.990000000     1.363000000
H    -5.494000000     2.606000000     0.852000000
C    -2.332000000     3.753000000     1.405000000
H    -1.415000000     4.086000000     0.926000000
C    -2.508000000     4.075000000     2.755000000
O    -1.586000000     4.848000000     3.437000000
C    -3.630000000     3.660000000     3.477000000
H    -3.699000000     3.881000000     4.539000000
C    -4.723000000     3.198000000     2.745000000
O    -5.872000000     2.805000000     3.370000000
C    -6.390000000     1.482000000     3.359000000
C    -5.473000000     0.400000000     3.443000000
H    -4.408000000     0.572000000     3.574000000
C    -7.801000000     1.244000000     3.354000000
H    -8.483000000     2.088000000     3.296000000
C    -8.227000000    -0.096000000     3.410000000
H    -9.258000000    -0.385000000     3.226000000
C    -7.302000000    -1.176000000     3.526000000
H    -7.679000000    -2.169000000     3.755000000
C    -5.943000000    -0.907000000     3.534000000
O    -5.147000000    -2.014000000     3.945000000
C    -4.249000000    -2.646000000     3.133000000
C    -3.458000000    -3.669000000     3.743000000
H    -3.476000000    -3.758000000     4.826000000
C    -2.489000000    -4.344000000     3.054000000
O    -1.659000000    -5.154000000     3.767000000
C    -0.571000000    -5.891000000     3.354000000
C     0.658000000    -5.252000000     3.525000000
H     0.793000000    -4.303000000     4.038000000
C    -0.758000000    -6.992000000     2.572000000
H    -1.758000000    -7.388000000     2.415000000
C     0.404000000    -7.645000000     2.086000000
H     0.275000000    -8.575000000     1.539000000
C     1.641000000    -7.149000000     2.302000000
H     2.590000000    -7.555000000     1.963000000
C     1.796000000    -5.947000000     2.991000000
O     3.028000000    -5.403000000     2.928000000
C     3.456000000    -4.399000000     2.076000000
C     4.729000000    -3.818000000     2.348000000
H     5.272000000    -4.125000000     3.238000000
C     5.340000000    -2.976000000     1.435000000
O     6.589000000    -2.466000000     1.601000000
C     6.889000000    -1.181000000     1.337000000
C     6.035000000    -0.227000000     1.920000000
H     5.238000000    -0.440000000     2.629000000
C     8.018000000    -0.816000000     0.564000000
H     8.733000000    -1.559000000     0.222000000
C     8.234000000     0.511000000     0.299000000
H     9.113000000     0.734000000    -0.300000000
C     7.442000000     1.469000000     0.872000000
H     7.729000000     2.506000000     0.717000000
C     6.349000000     1.103000000     1.685000000
O     5.651000000     2.096000000     2.283000000
C     4.745000000     2.818000000     1.622000000
C     4.399000000     4.028000000     2.200000000
H     4.827000000     4.297000000     3.162000000
C     3.352000000     4.746000000     1.602000000
O     2.890000000     5.946000000     2.199000000
C     1.524000000     6.275000000     2.342000000
C     1.122000000     7.421000000     1.638000000
H     1.793000000     8.037000000     1.044000000
C    -0.249000000     7.622000000     1.606000000
H    -0.623000000     8.408000000     0.955000000
C    -1.183000000     6.759000000     2.239000000
H    -2.245000000     6.971000000     2.332000000
C    -0.673000000     5.659000000     2.874000000
C     0.691000000     5.381000000     2.861000000
H     1.086000000     4.482000000     3.326000000
O     0.322000000     1.757000000     4.185000000
H    -0.550000000     1.651000000     4.565000000
H     0.337000000     1.149000000     3.446000000
O    -2.395000000    -3.821000000     9.062000000
H    -1.693000000    -3.568000000     9.662000000
H    -2.064000000    -3.592000000     8.194000000
O    -1.843000000    -6.980000000     6.177000000
H    -1.330000000    -6.182000000     6.047000000
H    -2.604000000    -6.696000000     6.682000000
O     2.917000000     2.676000000     4.626000000
H     3.469000000     2.289000000     3.946000000
H     2.056000000     2.280000000     4.489000000
O     1.791000000     0.256000000    10.427000000
H     2.339000000    -0.188000000     9.780000000
H     2.412000000     0.720000000    10.989000000
O    -0.075000000    -0.522000000     7.165000000
H    -0.346000000    -1.185000000     7.799000000
H    -0.070000000    -0.982000000     6.325000000
O     5.400000000    -2.891000000     6.531000000
H     6.321000000    -2.804000000     6.285000000
H     5.389000000    -3.604000000     7.169000000
O    -2.856000000    -0.980000000     5.673000000
H    -2.094000000    -1.475000000     5.373000000
H    -3.593000000    -1.364000000     5.199000000
O     0.963000000    -4.868000000     7.102000000
H     1.615000000    -5.560000000     6.991000000
H     1.430000000    -4.062000000     6.879000000
O    -1.225000000    -3.621000000     6.706000000
H    -1.102000000    -2.939000000     6.046000000
H    -0.407000000    -4.118000000     6.693000000
O     2.533000000     0.215000000     7.178000000
H     1.612000000    -0.033000000     7.260000000
H     2.857000000    -0.310000000     6.446000000
O     1.244000000     2.593000000     8.227000000
H     0.495000000     2.822000000     7.676000000
H     1.643000000     1.843000000     7.787000000
O    -4.133000000    -1.688000000     8.031000000
H    -3.802000000    -2.524000000     8.358000000
H    -3.596000000    -1.502000000     7.261000000
O     3.097000000    -2.361000000     9.117000000
H     2.929000000    -2.891000000     8.337000000
H     3.617000000    -1.623000000     8.798000000
O    -2.248000000     1.890000000     5.696000000
H    -2.547000000     0.983000000     5.769000000
H    -3.026000000     2.415000000     5.884000000
O     4.605000000     0.348000000     9.105000000
H     3.913000000     0.590000000     8.489000000
H     5.298000000     0.990000000     8.952000000
O     0.067000000    -2.379000000    10.214000000
H     0.980000000    -2.133000000    10.069000000
H    -0.217000000    -1.827000000    10.942000000
O     2.657000000    -2.954000000     6.412000000
H     2.093000000    -2.438000000     5.836000000
H     3.547000000    -2.707000000     6.159000000
O    -0.214000000     4.738000000     5.978000000
H    -0.875000000     5.329000000     5.618000000
H    -0.288000000     3.945000000     5.447000000
