201
-1264.42402
C    -3.203000000    -3.115000000     2.878000000
H    -2.474000000    -3.880000000     2.626000000
C    -3.842000000    -2.428000000     1.942000000
C    -4.773000000    -1.439000000     2.332000000
H    -5.284000000    -0.792000000     1.625000000
C    -3.446000000    -2.743000000     0.461000000
O    -3.020000000    -4.048000000     0.265000000
H    -2.639000000    -2.031000000     0.232000000
O    -4.545000000    -2.422000000    -0.448000000
C    -4.241000000    -1.682000000    -1.564000000
C    -4.446000000    -0.325000000    -1.423000000
H    -4.789000000     0.135000000    -0.500000000
C    -3.973000000     0.509000000    -2.413000000
O    -4.030000000     1.806000000    -2.019000000
C    -3.328000000    -0.018000000    -3.571000000
C    -2.812000000     0.842000000    -4.660000000
H    -2.712000000     0.323000000    -5.615000000
C    -1.424000000     1.312000000    -4.270000000
C    -0.308000000     0.620000000    -4.778000000
H    -0.436000000    -0.214000000    -5.463000000
H    -3.552000000     1.602000000    -4.918000000
C    -3.121000000    -1.403000000    -3.706000000
H    -2.538000000    -1.867000000    -4.497000000
C    -3.605000000    -2.217000000    -2.663000000
C    -3.291000000    -3.726000000    -2.693000000
H    -3.491000000    -4.125000000    -3.689000000
H    -4.099000000    -4.145000000    -2.089000000
C    -2.024000000    -4.079000000    -1.979000000
C    -0.834000000    -4.100000000    -2.800000000
H    -0.952000000    -3.992000000    -3.875000000
C    -1.961000000    -4.189000000    -0.606000000
C    -0.717000000    -4.477000000    -0.006000000
H    -0.690000000    -4.687000000     1.060000000
C     0.475000000    -4.614000000    -0.765000000
O     1.689000000    -4.647000000    -0.129000000
C     2.488000000    -3.444000000    -0.036000000
C     3.205000000    -3.343000000     1.316000000
C     4.529000000    -2.906000000     1.451000000
H     5.091000000    -2.680000000     0.549000000
C     2.385000000    -3.455000000     2.430000000
H     1.333000000    -3.730000000     2.415000000
O     3.517000000    -3.516000000    -1.045000000
H     1.813000000    -2.612000000    -0.283000000
C     0.362000000    -4.414000000    -2.166000000
C     1.624000000    -4.461000000    -3.078000000
H     1.294000000    -4.687000000    -4.094000000
H     2.210000000    -5.325000000    -2.758000000
C     2.373000000    -3.068000000    -3.182000000
C     2.053000000    -2.034000000    -4.069000000
H     1.247000000    -2.313000000    -4.742000000
C     3.228000000    -2.620000000    -2.087000000
C     3.763000000    -1.324000000    -2.045000000
H     4.365000000    -1.012000000    -1.196000000
C     3.538000000    -0.409000000    -3.041000000
O     3.958000000     0.896000000    -2.904000000
C     2.981000000     1.785000000    -2.289000000
C     3.725000000     2.681000000    -1.302000000
C     4.730000000     2.168000000    -0.450000000
H     4.944000000     1.102000000    -0.417000000
C     3.272000000     4.002000000    -1.071000000
H     2.435000000     4.312000000    -1.692000000
O     2.442000000     2.582000000    -3.407000000
H     2.266000000     1.162000000    -1.732000000
C     2.592000000    -0.779000000    -4.006000000
C     2.157000000     0.209000000    -5.058000000
H     1.903000000    -0.341000000    -5.966000000
H     3.026000000     0.802000000    -5.352000000
C     1.021000000     1.059000000    -4.589000000
C     1.185000000     2.181000000    -3.749000000
C     0.108000000     2.895000000    -3.265000000
H     0.262000000     3.684000000    -2.533000000
C    -1.194000000     2.469000000    -3.567000000
O    -2.211000000     3.166000000    -2.906000000
C    -2.717000000     2.497000000    -1.690000000
H    -1.990000000     1.706000000    -1.457000000
C    -2.814000000     3.467000000    -0.546000000
C    -3.702000000     3.220000000     0.474000000
H    -4.526000000     2.536000000     0.291000000
C    -1.985000000     4.517000000    -0.464000000
H    -1.319000000     4.622000000    -1.317000000
C    -2.103000000     5.510000000     0.466000000
O    -1.356000000     6.623000000     0.346000000
C    -2.974000000     5.223000000     1.566000000
H    -3.173000000     6.018000000     2.280000000
C    -3.779000000     4.099000000     1.530000000
O    -4.801000000     3.968000000     2.477000000
C    -5.723000000     2.914000000     2.611000000
C    -5.268000000     1.709000000     3.249000000
H    -4.228000000     1.653000000     3.561000000
C    -6.971000000     3.002000000     2.049000000
H    -7.242000000     3.955000000     1.602000000
C    -7.937000000     2.016000000     2.248000000
H    -8.948000000     2.178000000     1.883000000
C    -7.611000000     0.860000000     2.994000000
H    -8.286000000     0.039000000     3.221000000
C    -6.309000000     0.775000000     3.531000000
O    -5.938000000    -0.354000000     4.187000000
C    -5.061000000    -1.293000000     3.729000000
C    -4.443000000    -2.101000000     4.685000000
H    -4.615000000    -1.995000000     5.753000000
C    -3.456000000    -2.990000000     4.274000000
O    -2.767000000    -3.702000000     5.280000000
C    -1.482000000    -4.240000000     5.181000000
C    -0.390000000    -3.416000000     4.964000000
H    -0.536000000    -2.344000000     4.858000000
C    -1.323000000    -5.627000000     5.403000000
H    -2.185000000    -6.231000000     5.672000000
C    -0.061000000    -6.171000000     5.396000000
H     0.050000000    -7.239000000     5.566000000
C     1.065000000    -5.393000000     5.202000000
H     2.089000000    -5.726000000     5.346000000
C     0.857000000    -4.013000000     5.003000000
O     2.032000000    -3.332000000     4.846000000
C     2.894000000    -3.313000000     3.722000000
C     4.237000000    -2.916000000     3.860000000
H     4.592000000    -2.629000000     4.847000000
C     5.013000000    -2.616000000     2.751000000
O     6.275000000    -2.041000000     2.933000000
C     6.815000000    -1.060000000     2.206000000
C     6.082000000     0.139000000     2.257000000
H     5.101000000     0.231000000     2.716000000
C     7.853000000    -1.308000000     1.318000000
H     8.248000000    -2.320000000     1.292000000
C     8.247000000    -0.329000000     0.404000000
H     8.909000000    -0.608000000    -0.412000000
C     7.642000000     0.938000000     0.457000000
H     8.079000000     1.704000000    -0.179000000
C     6.594000000     1.157000000     1.388000000
O     6.050000000     2.391000000     1.505000000
C     5.280000000     2.975000000     0.530000000
C     4.847000000     4.263000000     0.735000000
H     5.362000000     4.826000000     1.509000000
C     3.856000000     4.801000000    -0.142000000
O     3.491000000     6.110000000     0.029000000
C     2.287000000     6.627000000    -0.419000000
C     2.285000000     7.646000000    -1.377000000
H     3.252000000     7.875000000    -1.817000000
C     1.098000000     8.263000000    -1.834000000
H     1.230000000     9.038000000    -2.585000000
C    -0.137000000     7.859000000    -1.318000000
H    -1.008000000     8.420000000    -1.649000000
C    -0.161000000     6.874000000    -0.318000000
C     1.011000000     6.187000000     0.061000000
H     0.978000000     5.450000000     0.858000000
O     0.635000000     5.656000000     3.463000000
H     0.113000000     6.458000000     3.488000000
H     0.025000000     4.965000000     3.721000000
O     3.302000000     6.071000000     3.448000000
H     2.358000000     6.226000000     3.468000000
H     3.512000000     5.750000000     4.325000000
O    -0.844000000     2.576000000     9.782000000
H     0.110000000     2.594000000     9.856000000
H    -1.016000000     2.745000000     8.856000000
O     1.765000000     0.533000000     8.438000000
H     1.349000000     0.280000000     9.263000000
H     1.188000000     0.180000000     7.761000000
O     1.466000000     2.865000000     5.868000000
H     0.692000000     3.061000000     5.341000000
H     1.584000000     1.919000000     5.778000000
O    -0.450000000    -2.015000000     8.427000000
H    -0.517000000    -1.290000000     7.805000000
H    -0.372000000    -1.591000000     9.281000000
O    -1.511000000     3.549000000     7.013000000
H    -2.342000000     3.121000000     6.809000000
H    -1.029000000     3.543000000     6.185000000
O     2.244000000     0.285000000     4.813000000
H     2.322000000     0.343000000     3.861000000
H     3.119000000     0.036000000     5.110000000
O     2.217000000     5.160000000     7.173000000
H     1.779000000     4.335000000     6.963000000
H     3.027000000     5.137000000     6.663000000
O    -1.959000000     7.598000000     5.365000000
H    -1.155000000     7.363000000     5.828000000
H    -2.420000000     6.767000000     5.249000000
O    -4.953000000     3.260000000     8.814000000
H    -4.708000000     4.149000000     9.072000000
H    -4.737000000     3.213000000     7.883000000
O    -3.393000000     1.446000000     6.614000000
H    -3.203000000     0.575000000     6.961000000
H    -2.704000000     1.602000000     5.969000000
O    -3.079000000     4.951000000     4.894000000
H    -2.517000000     4.377000000     4.375000000
H    -3.920000000     4.942000000     4.437000000
O    -6.788000000     1.326000000     7.033000000
H    -5.951000000     1.070000000     6.646000000
H    -6.618000000     1.353000000     7.975000000
O     0.689000000     7.192000000     6.202000000
H     1.306000000     6.756000000     6.790000000
H     1.086000000     7.110000000     5.335000000
O    -3.342000000     5.609000000     8.425000000
H    -3.004000000     6.495000000     8.296000000
H    -2.691000000     5.042000000     8.011000000
O     2.523000000     0.421000000     1.968000000
H     2.796000000     1.322000000     2.139000000
H     1.597000000     0.491000000     1.734000000
O     2.569000000     2.947000000     2.936000000
H     2.110000000     3.753000000     3.176000000
H     3.323000000     2.917000000     3.524000000
O    -0.100000000     0.004000000     6.395000000
H     0.601000000    -0.220000000     5.783000000
H    -0.767000000     0.425000000     5.853000000
