201
-1242.76617
C    -2.261000000    -3.193000000     3.247000000
H    -1.480000000    -3.780000000     2.770000000
C    -3.262000000    -2.538000000     2.525000000
C    -4.245000000    -1.786000000     3.218000000
H    -5.037000000    -1.249000000     2.703000000
C    -3.294000000    -2.668000000     0.991000000
O    -3.012000000    -4.013000000     0.441000000
H    -2.521000000    -1.965000000     0.646000000
O    -4.586000000    -2.244000000     0.423000000
C    -4.576000000    -1.554000000    -0.754000000
C    -4.743000000    -0.179000000    -0.676000000
H    -4.935000000     0.238000000     0.310000000
C    -4.513000000     0.724000000    -1.707000000
O    -4.451000000     2.049000000    -1.362000000
C    -4.001000000     0.241000000    -2.943000000
C    -3.699000000     1.156000000    -4.159000000
H    -4.011000000     0.607000000    -5.050000000
C    -2.182000000     1.508000000    -4.177000000
C    -1.191000000     0.926000000    -4.904000000
H    -1.555000000     0.069000000    -5.464000000
H    -4.405000000     1.987000000    -4.105000000
C    -3.924000000    -1.135000000    -3.030000000
H    -3.646000000    -1.606000000    -3.969000000
C    -4.081000000    -2.068000000    -1.989000000
C    -3.875000000    -3.546000000    -2.245000000
H    -4.192000000    -3.793000000    -3.260000000
H    -4.564000000    -4.097000000    -1.601000000
C    -2.463000000    -4.014000000    -1.934000000
C    -1.501000000    -3.929000000    -2.862000000
H    -1.772000000    -3.592000000    -3.859000000
C    -2.107000000    -4.166000000    -0.594000000
C    -0.837000000    -4.522000000    -0.246000000
H    -0.591000000    -4.718000000     0.795000000
C     0.193000000    -4.560000000    -1.223000000
O     1.404000000    -4.660000000    -0.759000000
C     2.186000000    -3.420000000    -0.684000000
C     3.048000000    -3.364000000     0.639000000
C     4.196000000    -2.526000000     0.678000000
H     4.437000000    -1.880000000    -0.163000000
C     2.609000000    -4.089000000     1.786000000
H     1.668000000    -4.632000000     1.789000000
O     3.044000000    -3.391000000    -1.884000000
H     1.483000000    -2.578000000    -0.772000000
C    -0.129000000    -4.125000000    -2.541000000
C     0.945000000    -4.139000000    -3.667000000
H     0.384000000    -4.357000000    -4.578000000
H     1.633000000    -4.953000000    -3.428000000
C     1.603000000    -2.816000000    -3.760000000
C     1.116000000    -1.793000000    -4.665000000
H     0.179000000    -1.954000000    -5.191000000
C     2.648000000    -2.540000000    -2.877000000
C     3.254000000    -1.304000000    -2.876000000
H     4.045000000    -1.119000000    -2.154000000
C     2.839000000    -0.306000000    -3.771000000
O     3.452000000     0.930000000    -3.662000000
C     2.585000000     1.872000000    -2.908000000
C     3.291000000     2.620000000    -1.814000000
C     4.456000000     2.081000000    -1.178000000
H     4.843000000     1.098000000    -1.433000000
C     2.740000000     3.900000000    -1.514000000
H     1.904000000     4.351000000    -2.042000000
O     1.778000000     2.714000000    -3.758000000
H     1.894000000     1.233000000    -2.339000000
C     1.809000000    -0.583000000    -4.686000000
C     1.190000000     0.600000000    -5.576000000
H     0.732000000     0.182000000    -6.475000000
H     1.944000000     1.333000000    -5.872000000
C     0.121000000     1.352000000    -4.837000000
C     0.451000000     2.421000000    -3.970000000
C    -0.546000000     3.145000000    -3.335000000
H    -0.304000000     3.975000000    -2.677000000
C    -1.859000000     2.672000000    -3.437000000
O    -2.752000000     3.314000000    -2.612000000
C    -3.080000000     2.638000000    -1.361000000
H    -2.465000000     1.726000000    -1.332000000
C    -2.963000000     3.509000000    -0.095000000
C    -3.318000000     2.977000000     1.150000000
H    -3.709000000     1.966000000     1.228000000
C    -2.239000000     4.712000000    -0.173000000
H    -2.030000000     5.261000000    -1.088000000
C    -1.907000000     5.428000000     0.944000000
O    -1.391000000     6.716000000     0.894000000
C    -2.188000000     4.836000000     2.169000000
H    -1.852000000     5.402000000     3.033000000
C    -2.986000000     3.714000000     2.309000000
O    -3.330000000     3.351000000     3.556000000
C    -4.455000000     2.591000000     3.885000000
C    -4.301000000     1.398000000     4.559000000
H    -3.305000000     1.093000000     4.870000000
C    -5.638000000     2.961000000     3.361000000
H    -5.740000000     3.922000000     2.863000000
C    -6.759000000     2.245000000     3.670000000
H    -7.699000000     2.602000000     3.257000000
C    -6.631000000     1.012000000     4.321000000
H    -7.489000000     0.348000000     4.387000000
C    -5.362000000     0.556000000     4.734000000
O    -5.114000000    -0.687000000     5.205000000
C    -4.174000000    -1.487000000     4.610000000
C    -3.160000000    -2.153000000     5.311000000
H    -2.983000000    -2.004000000     6.373000000
C    -2.220000000    -2.959000000     4.669000000
O    -1.083000000    -3.302000000     5.505000000
C    -0.318000000    -4.353000000     5.150000000
C     0.959000000    -4.142000000     4.599000000
H     1.226000000    -3.091000000     4.517000000
C    -0.625000000    -5.638000000     5.522000000
H    -1.603000000    -5.864000000     5.939000000
C     0.335000000    -6.697000000     5.403000000
H     0.049000000    -7.663000000     5.810000000
C     1.514000000    -6.460000000     4.700000000
H     2.305000000    -7.204000000     4.649000000
C     1.905000000    -5.135000000     4.463000000
O     3.207000000    -4.881000000     3.993000000
C     3.461000000    -4.080000000     2.884000000
C     4.727000000    -3.451000000     2.865000000
H     5.386000000    -3.377000000     3.726000000
C     5.046000000    -2.587000000     1.834000000
O     6.348000000    -2.094000000     1.953000000
C     6.837000000    -0.998000000     1.167000000
C     6.191000000     0.223000000     1.140000000
H     5.272000000     0.430000000     1.682000000
C     8.026000000    -1.236000000     0.563000000
H     8.286000000    -2.292000000     0.593000000
C     8.651000000    -0.243000000    -0.180000000
H     9.573000000    -0.472000000    -0.708000000
C     7.974000000     0.987000000    -0.223000000
H     8.426000000     1.837000000    -0.728000000
C     6.787000000     1.289000000     0.457000000
O     6.324000000     2.559000000     0.364000000
C     5.113000000     2.928000000    -0.240000000
C     4.640000000     4.216000000    -0.059000000
H     5.197000000     4.829000000     0.645000000
C     3.486000000     4.682000000    -0.667000000
O     3.130000000     5.916000000    -0.326000000
C     1.974000000     6.511000000    -0.622000000
C     2.029000000     7.712000000    -1.389000000
H     2.948000000     8.020000000    -1.882000000
C     0.911000000     8.548000000    -1.389000000
H     0.812000000     9.445000000    -1.994000000
C    -0.194000000     8.246000000    -0.583000000
H    -1.133000000     8.790000000    -0.509000000
C    -0.222000000     7.108000000     0.163000000
C     0.849000000     6.162000000     0.125000000
H     0.803000000     5.308000000     0.796000000
O    -0.545000000     4.427000000     6.541000000
H    -0.658000000     5.208000000     5.998000000
H    -0.510000000     3.704000000     5.914000000
O     1.158000000     6.455000000     4.213000000
H     0.460000000     6.957000000     4.633000000
H     0.790000000     5.578000000     4.104000000
O     2.046000000     8.842000000     3.110000000
H     2.583000000     8.924000000     3.898000000
H     1.618000000     7.990000000     3.200000000
O    -3.637000000     6.454000000     5.212000000
H    -4.021000000     6.289000000     4.351000000
H    -4.181000000     5.950000000     5.818000000
O     3.685000000    -0.730000000     4.677000000
H     4.568000000    -0.391000000     4.825000000
H     3.376000000    -0.261000000     3.901000000
O     4.833000000     6.355000000     4.292000000
H     5.662000000     6.834000000     4.273000000
H     4.511000000     6.470000000     5.185000000
O     1.407000000     2.717000000     7.733000000
H     0.905000000     3.121000000     7.025000000
H     1.313000000     1.775000000     7.586000000
O     2.864000000     0.785000000     2.561000000
H     1.983000000     0.694000000     2.198000000
H     2.951000000     1.719000000     2.748000000
O     3.046000000     6.892000000     6.297000000
H     2.262000000     6.669000000     5.794000000
H     2.845000000     7.743000000     6.687000000
O    -0.258000000     4.767000000     9.281000000
H     0.034000000     4.225000000     8.548000000
H    -1.059000000     4.342000000     9.588000000
O    -3.244000000     3.696000000     6.881000000
H    -2.311000000     3.793000000     7.069000000
H    -3.279000000     3.476000000     5.950000000
O     3.103000000     3.175000000     9.643000000
H     2.358000000     2.962000000     9.081000000
H     2.911000000     2.735000000    10.471000000
O    -0.985000000     7.408000000     5.660000000
H    -1.906000000     7.228000000     5.470000000
H    -0.947000000     7.481000000     6.614000000
O    -1.146000000     1.479000000     8.562000000
H    -1.322000000     0.608000000     8.917000000
H    -0.490000000     1.332000000     7.881000000
O     4.293000000     4.851000000     7.672000000
H     3.979000000     4.328000000     8.410000000
H     3.497000000     5.172000000     7.250000000
O    -0.020000000    -1.918000000     7.850000000
H     0.078000000    -1.059000000     7.440000000
H     0.686000000    -2.444000000     7.475000000
O     3.054000000     3.671000000     3.083000000
H     2.168000000     3.756000000     3.434000000
H     3.386000000     4.568000000     3.053000000
O     5.945000000     3.678000000     3.741000000
H     5.194000000     3.283000000     3.297000000
H     5.559000000     4.291000000     4.366000000
O     0.575000000     0.383000000     6.370000000
H     1.303000000     0.067000000     5.835000000
H     0.222000000     1.126000000     5.879000000
