201
-1230.43464
C    -3.166000000    -1.046000000     4.459000000
H    -2.952000000    -2.111000000     4.427000000
C    -3.646000000    -0.529000000     3.223000000
C    -3.871000000     0.828000000     3.191000000
H    -4.205000000     1.336000000     2.290000000
C    -3.739000000    -1.309000000     1.941000000
O    -3.659000000    -2.765000000     2.208000000
H    -2.873000000    -1.172000000     1.276000000
O    -4.888000000    -0.942000000     1.148000000
C    -4.667000000    -0.831000000    -0.189000000
C    -4.459000000     0.448000000    -0.626000000
H    -4.599000000     1.259000000     0.084000000
C    -4.039000000     0.705000000    -1.937000000
O    -3.793000000     1.967000000    -2.425000000
C    -3.886000000    -0.362000000    -2.827000000
C    -3.531000000    -0.228000000    -4.295000000
H    -3.946000000    -1.059000000    -4.870000000
C    -1.974000000    -0.168000000    -4.537000000
C    -1.143000000    -1.340000000    -4.625000000
H    -1.626000000    -2.298000000    -4.797000000
H    -4.057000000     0.659000000    -4.655000000
C    -4.102000000    -1.678000000    -2.394000000
H    -3.831000000    -2.447000000    -3.113000000
C    -4.451000000    -1.932000000    -1.077000000
C    -4.532000000    -3.338000000    -0.621000000
H    -4.701000000    -3.971000000    -1.495000000
H    -5.340000000    -3.480000000     0.100000000
C    -3.157000000    -3.803000000     0.041000000
C    -2.141000000    -4.372000000    -0.754000000
H    -2.512000000    -4.692000000    -1.724000000
C    -2.837000000    -3.517000000     1.373000000
C    -1.563000000    -3.625000000     1.832000000
H    -1.321000000    -3.295000000     2.839000000
C    -0.609000000    -4.247000000     1.056000000
O     0.610000000    -4.273000000     1.700000000
C     1.722000000    -3.523000000     1.284000000
C     2.459000000    -3.099000000     2.563000000
C     3.827000000    -2.798000000     2.445000000
H     4.296000000    -2.725000000     1.467000000
C     1.808000000    -2.893000000     3.764000000
H     0.737000000    -3.036000000     3.883000000
O     2.445000000    -4.269000000     0.308000000
H     1.152000000    -2.675000000     0.876000000
C    -0.875000000    -4.710000000    -0.225000000
C     0.141000000    -5.493000000    -1.030000000
H    -0.240000000    -6.281000000    -1.683000000
H     0.759000000    -6.104000000    -0.368000000
C     1.025000000    -4.421000000    -1.705000000
C     0.681000000    -3.846000000    -2.905000000
H    -0.249000000    -4.097000000    -3.410000000
C     2.184000000    -3.936000000    -1.031000000
C     3.014000000    -3.028000000    -1.557000000
H     3.891000000    -2.656000000    -1.035000000
C     2.743000000    -2.498000000    -2.825000000
O     3.474000000    -1.440000000    -3.204000000
C     2.885000000    -0.124000000    -3.085000000
C     3.924000000     0.956000000    -2.632000000
C     4.791000000     0.566000000    -1.619000000
H     4.837000000    -0.465000000    -1.278000000
C     3.679000000     2.313000000    -2.802000000
H     2.960000000     2.651000000    -3.545000000
O     2.132000000     0.322000000    -4.270000000
H     2.208000000    -0.166000000    -2.219000000
C     1.574000000    -2.934000000    -3.469000000
C     1.156000000    -2.392000000    -4.739000000
H     0.626000000    -3.163000000    -5.302000000
H     2.067000000    -2.186000000    -5.305000000
C     0.247000000    -1.214000000    -4.519000000
C     0.784000000     0.071000000    -4.369000000
C    -0.007000000     1.183000000    -4.263000000
H     0.516000000     2.128000000    -4.138000000
C    -1.374000000     1.069000000    -4.393000000
O    -2.058000000     2.242000000    -4.124000000
C    -2.472000000     2.357000000    -2.710000000
H    -1.845000000     1.721000000    -2.068000000
C    -2.182000000     3.705000000    -2.163000000
C    -2.857000000     4.126000000    -1.041000000
H    -3.599000000     3.515000000    -0.533000000
C    -1.127000000     4.454000000    -2.693000000
H    -0.557000000     4.062000000    -3.531000000
C    -0.898000000     5.742000000    -2.211000000
O     0.014000000     6.550000000    -2.781000000
C    -1.721000000     6.308000000    -1.236000000
H    -1.462000000     7.281000000    -0.825000000
C    -2.680000000     5.421000000    -0.644000000
O    -3.323000000     5.858000000     0.526000000
C    -4.226000000     5.170000000     1.297000000
C    -3.686000000     4.491000000     2.386000000
H    -2.621000000     4.532000000     2.597000000
C    -5.570000000     5.114000000     1.001000000
H    -5.881000000     5.502000000     0.034000000
C    -6.343000000     4.294000000     1.727000000
H    -7.345000000     4.069000000     1.372000000
C    -5.804000000     3.523000000     2.858000000
H    -6.480000000     2.951000000     3.488000000
C    -4.480000000     3.686000000     3.176000000
O    -3.913000000     3.063000000     4.224000000
C    -3.637000000     1.703000000     4.261000000
C    -3.129000000     1.176000000     5.424000000
H    -2.983000000     1.825000000     6.284000000
C    -2.884000000    -0.220000000     5.529000000
O    -2.453000000    -0.727000000     6.679000000
C    -1.611000000    -1.828000000     6.723000000
C    -0.275000000    -1.604000000     6.369000000
H    -0.001000000    -0.571000000     6.170000000
C    -1.991000000    -3.142000000     7.084000000
H    -3.037000000    -3.328000000     7.314000000
C    -1.042000000    -4.164000000     7.220000000
H    -1.380000000    -5.184000000     7.387000000
C     0.279000000    -3.912000000     6.760000000
H     1.091000000    -4.633000000     6.703000000
C     0.634000000    -2.623000000     6.383000000
O     2.025000000    -2.404000000     6.142000000
C     2.553000000    -2.497000000     4.883000000
C     3.934000000    -2.256000000     4.738000000
H     4.597000000    -1.903000000     5.524000000
C     4.590000000    -2.474000000     3.555000000
O     5.893000000    -1.914000000     3.368000000
C     6.432000000    -1.570000000     2.149000000
C     6.239000000    -0.302000000     1.634000000
H     5.844000000     0.446000000     2.317000000
C     7.185000000    -2.536000000     1.411000000
H     7.268000000    -3.551000000     1.792000000
C     7.572000000    -2.201000000     0.069000000
H     8.256000000    -2.842000000    -0.481000000
C     7.386000000    -0.939000000    -0.387000000
H     7.828000000    -0.653000000    -1.338000000
C     6.796000000     0.019000000     0.407000000
O     6.560000000     1.238000000    -0.149000000
C     5.673000000     1.545000000    -1.106000000
C     5.554000000     2.893000000    -1.418000000
H     6.348000000     3.572000000    -1.117000000
C     4.556000000     3.250000000    -2.323000000
O     4.429000000     4.620000000    -2.573000000
C     3.452000000     5.225000000    -3.276000000
C     3.741000000     5.702000000    -4.512000000
H     4.760000000     5.564000000    -4.866000000
C     2.740000000     6.458000000    -5.163000000
H     2.981000000     6.899000000    -6.127000000
C     1.483000000     6.664000000    -4.600000000
H     0.722000000     7.275000000    -5.080000000
C     1.182000000     6.161000000    -3.359000000
C     2.171000000     5.428000000    -2.692000000
H     1.949000000     5.094000000    -1.682000000
O     1.963000000     1.523000000     4.940000000
H     1.413000000     1.353000000     5.704000000
H     1.803000000     2.444000000     4.730000000
O     3.684000000     3.738000000     1.105000000
H     3.752000000     2.785000000     1.039000000
H     2.847000000     3.889000000     1.543000000
O    -1.059000000     5.837000000     5.210000000
H    -0.548000000     6.248000000     5.907000000
H    -0.441000000     5.251000000     4.773000000
O     1.306000000     6.776000000     0.779000000
H     0.496000000     6.467000000     0.374000000
H     1.378000000     6.269000000     1.588000000
O     5.318000000     5.142000000     5.332000000
H     4.607000000     5.450000000     5.895000000
H     5.685000000     4.392000000     5.799000000
O     3.407000000     8.019000000    -0.828000000
H     2.898000000     8.693000000    -1.279000000
H     2.794000000     7.294000000    -0.710000000
O     4.721000000     1.308000000     4.693000000
H     5.167000000     1.847000000     4.040000000
H     3.821000000     1.241000000     4.374000000
O     1.396000000     9.214000000     4.226000000
H     1.906000000     8.404000000     4.205000000
H     1.984000000     9.858000000     4.619000000
O     2.677000000     6.462000000     3.860000000
H     3.143000000     5.969000000     4.536000000
H     2.231000000     5.792000000     3.341000000
O    -0.222000000     2.293000000     8.963000000
H     0.059000000     2.509000000     8.074000000
H    -0.201000000     3.128000000     9.431000000
O     3.136000000     5.843000000     6.655000000
H     2.440000000     6.485000000     6.516000000
H     2.995000000     5.528000000     7.548000000
O     5.928000000     3.269000000     2.913000000
H     5.310000000     3.314000000     2.183000000
H     6.104000000     4.184000000     3.134000000
O    -3.095000000     7.541000000     4.021000000
H    -2.597000000     6.741000000     4.187000000
H    -2.893000000     7.765000000     3.112000000
O    -1.481000000     8.448000000     1.713000000
H    -0.618000000     8.182000000     2.031000000
H    -1.300000000     8.948000000     0.918000000
O     5.218000000     5.850000000     0.018000000
H     4.627000000     5.136000000     0.259000000
H     4.637000000     6.573000000    -0.218000000
O     3.030000000     0.896000000     1.288000000
H     3.339000000     0.149000000     1.801000000
H     2.106000000     0.981000000     1.521000000
O     4.376000000     8.093000000     2.034000000
H     3.743000000     8.254000000     1.334000000
H     3.913000000     7.525000000     2.650000000
O    -0.220000000     2.725000000     6.382000000
H    -1.052000000     3.183000000     6.498000000
H     0.045000000     2.933000000     5.486000000
O    -3.572000000     5.120000000     6.807000000
H    -2.743000000     5.395000000     6.417000000
H    -4.180000000     5.073000000     6.070000000
