201
-1251.68722
C    -2.973000000    -1.060000000     4.241000000
H    -2.532000000    -2.038000000     4.068000000
C    -3.726000000    -0.399000000     3.217000000
C    -4.127000000     0.922000000     3.437000000
H    -4.742000000     1.504000000     2.754000000
C    -3.874000000    -1.068000000     1.859000000
O    -3.990000000    -2.511000000     2.024000000
H    -2.936000000    -0.940000000     1.298000000
O    -4.917000000    -0.423000000     1.071000000
C    -4.576000000    -0.308000000    -0.254000000
C    -4.330000000     0.999000000    -0.611000000
H    -4.303000000     1.712000000     0.210000000
C    -3.938000000     1.271000000    -1.926000000
O    -3.512000000     2.558000000    -2.137000000
C    -3.862000000     0.249000000    -2.878000000
C    -3.505000000     0.647000000    -4.296000000
H    -3.986000000     0.032000000    -5.060000000
C    -2.031000000     0.674000000    -4.497000000
C    -1.386000000    -0.513000000    -4.836000000
H    -2.021000000    -1.382000000    -4.990000000
H    -3.924000000     1.604000000    -4.614000000
C    -4.147000000    -1.091000000    -2.467000000
H    -4.029000000    -1.926000000    -3.153000000
C    -4.490000000    -1.323000000    -1.144000000
C    -4.789000000    -2.771000000    -0.689000000
H    -5.357000000    -3.312000000    -1.450000000
H    -5.498000000    -2.746000000     0.141000000
C    -3.530000000    -3.400000000    -0.139000000
C    -2.699000000    -4.226000000    -0.915000000
H    -2.874000000    -4.305000000    -1.984000000
C    -3.173000000    -3.217000000     1.228000000
C    -2.073000000    -3.781000000     1.774000000
H    -1.771000000    -3.532000000     2.789000000
C    -1.145000000    -4.438000000     0.928000000
O     0.090000000    -4.747000000     1.418000000
C     1.289000000    -4.028000000     1.015000000
C     2.217000000    -3.799000000     2.192000000
C     3.588000000    -3.729000000     2.052000000
H     3.969000000    -3.866000000     1.044000000
C     1.682000000    -3.544000000     3.482000000
H     0.617000000    -3.701000000     3.637000000
O     1.918000000    -4.597000000    -0.147000000
H     0.987000000    -3.006000000     0.741000000
C    -1.448000000    -4.644000000    -0.457000000
C    -0.555000000    -5.342000000    -1.431000000
H    -1.193000000    -5.736000000    -2.225000000
H    -0.015000000    -6.148000000    -0.929000000
C     0.428000000    -4.432000000    -2.082000000
C     0.122000000    -3.759000000    -3.236000000
H    -0.847000000    -3.937000000    -3.697000000
C     1.619000000    -4.069000000    -1.451000000
C     2.465000000    -3.232000000    -2.066000000
H     3.367000000    -2.925000000    -1.543000000
C     2.088000000    -2.448000000    -3.100000000
O     3.011000000    -1.461000000    -3.546000000
C     2.669000000    -0.052000000    -3.420000000
C     3.777000000     0.856000000    -2.930000000
C     4.538000000     0.485000000    -1.829000000
H     4.406000000    -0.514000000    -1.421000000
C     3.908000000     2.148000000    -3.324000000
H     3.209000000     2.497000000    -4.079000000
O     2.105000000     0.397000000    -4.608000000
H     1.960000000    -0.043000000    -2.579000000
C     0.912000000    -2.754000000    -3.786000000
C     0.629000000    -2.053000000    -5.108000000
H    -0.067000000    -2.656000000    -5.694000000
H     1.571000000    -2.016000000    -5.660000000
C     0.005000000    -0.628000000    -4.939000000
C     0.786000000     0.545000000    -4.744000000
C     0.135000000     1.708000000    -4.292000000
H     0.650000000     2.571000000    -3.878000000
C    -1.250000000     1.811000000    -4.226000000
O    -1.849000000     2.878000000    -3.760000000
C    -2.075000000     2.782000000    -2.326000000
H    -1.623000000     1.826000000    -2.023000000
C    -1.549000000     3.965000000    -1.586000000
C    -2.102000000     4.374000000    -0.361000000
H    -2.821000000     3.662000000     0.037000000
C    -0.353000000     4.628000000    -2.009000000
H     0.215000000     4.188000000    -2.825000000
C     0.090000000     5.732000000    -1.269000000
O     1.166000000     6.470000000    -1.677000000
C    -0.596000000     6.197000000    -0.145000000
H    -0.222000000     7.096000000     0.338000000
C    -1.685000000     5.469000000     0.366000000
O    -2.163000000     5.845000000     1.607000000
C    -3.229000000     5.232000000     2.219000000
C    -3.116000000     4.217000000     3.111000000
H    -2.122000000     3.860000000     3.366000000
C    -4.518000000     5.652000000     1.825000000
H    -4.674000000     6.503000000     1.166000000
C    -5.677000000     5.130000000     2.465000000
H    -6.691000000     5.497000000     2.334000000
C    -5.475000000     4.219000000     3.498000000
H    -6.299000000     3.854000000     4.107000000
C    -4.248000000     3.708000000     3.805000000
O    -4.141000000     2.801000000     4.842000000
C    -3.716000000     1.550000000     4.599000000
C    -3.144000000     0.852000000     5.593000000
H    -2.835000000     1.451000000     6.446000000
C    -2.784000000    -0.442000000     5.492000000
O    -2.109000000    -0.997000000     6.500000000
C    -1.368000000    -2.158000000     6.481000000
C    -0.068000000    -2.138000000     6.005000000
H     0.382000000    -1.238000000     5.596000000
C    -1.831000000    -3.248000000     7.107000000
H    -2.842000000    -3.232000000     7.505000000
C    -1.061000000    -4.323000000     7.422000000
H    -1.391000000    -5.169000000     8.018000000
C     0.219000000    -4.359000000     6.883000000
H     0.846000000    -5.228000000     7.064000000
C     0.721000000    -3.239000000     6.230000000
O     2.100000000    -3.197000000     5.899000000
C     2.557000000    -3.304000000     4.614000000
C     3.946000000    -3.139000000     4.396000000
H     4.564000000    -2.754000000     5.203000000
C     4.392000000    -3.355000000     3.120000000
O     5.654000000    -2.940000000     2.897000000
C     6.127000000    -2.377000000     1.720000000
C     5.845000000    -1.089000000     1.414000000
H     5.225000000    -0.565000000     2.136000000
C     6.851000000    -3.176000000     0.822000000
H     7.096000000    -4.196000000     1.109000000
C     7.411000000    -2.579000000    -0.352000000
H     8.066000000    -3.240000000    -0.913000000
C     7.132000000    -1.198000000    -0.645000000
H     7.493000000    -0.650000000    -1.511000000
C     6.300000000    -0.486000000     0.201000000
O     6.006000000     0.812000000    -0.009000000
C     5.498000000     1.270000000    -1.224000000
C     5.716000000     2.527000000    -1.699000000
H     6.424000000     3.171000000    -1.185000000
C     4.949000000     2.925000000    -2.751000000
O     5.037000000     4.251000000    -3.298000000
C     3.987000000     5.074000000    -3.541000000
C     3.691000000     5.557000000    -4.790000000
H     4.374000000     5.381000000    -5.617000000
C     2.569000000     6.283000000    -5.061000000
H     2.271000000     6.358000000    -6.104000000
C     1.641000000     6.537000000    -4.042000000
H     0.723000000     7.089000000    -4.228000000
C     1.975000000     6.123000000    -2.734000000
C     3.100000000     5.359000000    -2.523000000
H     3.401000000     4.985000000    -1.548000000
O     1.956000000     0.651000000     5.102000000
H     2.884000000     0.770000000     5.303000000
H     1.617000000     1.541000000     5.001000000
O     5.874000000     3.660000000     2.612000000
H     5.769000000     4.262000000     1.875000000
H     5.391000000     4.072000000     3.328000000
O     0.718000000     5.926000000     4.916000000
H     0.344000000     5.558000000     5.717000000
H     0.877000000     5.166000000     4.355000000
O     2.911000000     5.949000000     0.962000000
H     2.343000000     6.527000000     0.453000000
H     2.322000000     5.519000000     1.582000000
O     4.175000000     5.098000000     7.076000000
H     4.742000000     5.656000000     7.609000000
H     4.320000000     4.215000000     7.416000000
O     5.666000000     5.907000000     0.586000000
H     5.684000000     6.277000000    -0.297000000
H     4.735000000     5.857000000     0.805000000
O     2.444000000     0.649000000     8.309000000
H     2.631000000    -0.260000000     8.072000000
H     1.548000000     0.795000000     8.005000000
O     4.857000000     1.451000000     4.158000000
H     5.257000000     2.189000000     3.698000000
H     4.268000000     1.058000000     3.514000000
O     2.296000000     8.018000000     4.906000000
H     1.837000000     8.646000000     5.463000000
H     1.744000000     7.236000000     4.920000000
O     6.088000000     5.914000000     5.134000000
H     5.692000000     6.156000000     4.297000000
H     5.408000000     5.413000000     5.585000000
O     3.891000000     4.376000000     4.533000000
H     3.547000000     4.090000000     5.380000000
H     3.113000000     4.550000000     4.004000000
O    -0.677000000     0.713000000     7.997000000
H    -1.259000000     0.407000000     7.302000000
H    -0.781000000     0.069000000     8.698000000
O     1.441000000     6.958000000     7.557000000
H     1.682000000     6.226000000     6.989000000
H     1.990000000     6.851000000     8.333000000
O    -0.641000000     7.948000000     3.452000000
H    -0.075000000     7.217000000     3.698000000
H    -0.341000000     8.201000000     2.579000000
O     1.866000000     8.577000000     2.125000000
H     1.841000000     8.520000000     3.080000000
H     2.797000000     8.656000000     1.915000000
O     2.915000000     0.378000000     2.473000000
H     2.321000000     0.959000000     1.999000000
H     2.355000000    -0.073000000     3.105000000
O     4.360000000     7.217000000     3.202000000
H     3.823000000     6.755000000     2.559000000
H     3.747000000     7.463000000     3.895000000
O     0.482000000     3.758000000     6.879000000
H     0.644000000     3.662000000     5.941000000
H    -0.467000000     3.857000000     6.950000000
O    -2.171000000     4.009000000     6.907000000
H    -2.735000000     3.255000000     7.080000000
H    -2.757000000     4.665000000     6.530000000
