201
-1213.33274
C    -3.088000000    -1.431000000     4.593000000
H    -3.164000000    -2.475000000     4.301000000
C    -3.466000000    -0.378000000     3.738000000
C    -3.442000000     0.892000000     4.147000000
H    -3.784000000     1.760000000     3.590000000
C    -3.800000000    -0.734000000     2.380000000
O    -4.324000000    -2.109000000     2.131000000
H    -2.853000000    -0.751000000     1.821000000
O    -4.752000000     0.245000000     1.788000000
C    -4.638000000     0.552000000     0.444000000
C    -4.164000000     1.826000000     0.174000000
H    -3.839000000     2.471000000     0.986000000
C    -3.927000000     2.271000000    -1.128000000
O    -3.375000000     3.528000000    -1.217000000
C    -4.143000000     1.372000000    -2.185000000
C    -3.799000000     1.714000000    -3.644000000
H    -4.413000000     1.226000000    -4.404000000
C    -2.279000000     1.579000000    -3.929000000
C    -1.841000000     0.341000000    -4.470000000
H    -2.544000000    -0.461000000    -4.678000000
H    -4.080000000     2.760000000    -3.784000000
C    -4.522000000     0.060000000    -1.907000000
H    -4.552000000    -0.672000000    -2.711000000
C    -4.888000000    -0.298000000    -0.633000000
C    -5.393000000    -1.744000000    -0.424000000
H    -5.941000000    -2.049000000    -1.318000000
H    -6.093000000    -1.725000000     0.414000000
C    -4.195000000    -2.617000000    -0.170000000
C    -3.468000000    -3.142000000    -1.283000000
H    -3.822000000    -2.854000000    -2.270000000
C    -3.781000000    -2.854000000     1.105000000
C    -2.570000000    -3.484000000     1.282000000
H    -2.308000000    -3.691000000     2.316000000
C    -1.851000000    -4.060000000     0.197000000
O    -0.585000000    -4.677000000     0.485000000
C     0.628000000    -3.998000000    -0.071000000
C     1.731000000    -3.960000000     1.014000000
C     3.111000000    -3.967000000     0.672000000
H     3.423000000    -4.056000000    -0.366000000
C     1.360000000    -3.868000000     2.418000000
H     0.329000000    -4.050000000     2.708000000
O     1.137000000    -4.621000000    -1.317000000
H     0.310000000    -2.949000000    -0.165000000
C    -2.305000000    -3.925000000    -1.112000000
C    -1.680000000    -4.620000000    -2.327000000
H    -2.438000000    -4.868000000    -3.073000000
H    -1.214000000    -5.580000000    -2.093000000
C    -0.555000000    -3.828000000    -2.937000000
C    -0.805000000    -2.961000000    -3.984000000
H    -1.833000000    -2.813000000    -4.305000000
C     0.723000000    -3.870000000    -2.450000000
C     1.758000000    -3.104000000    -2.950000000
H     2.705000000    -3.071000000    -2.417000000
C     1.513000000    -2.220000000    -3.984000000
O     2.453000000    -1.245000000    -4.273000000
C     2.355000000     0.002000000    -3.618000000
C     3.641000000     0.476000000    -3.004000000
C     4.758000000    -0.354000000    -2.781000000
H     4.662000000    -1.414000000    -3.003000000
C     3.710000000     1.800000000    -2.511000000
H     2.981000000     2.532000000    -2.850000000
O     1.813000000     0.936000000    -4.599000000
H     1.654000000    -0.168000000    -2.788000000
C     0.202000000    -2.149000000    -4.513000000
C    -0.116000000    -1.079000000    -5.586000000
H    -0.755000000    -1.471000000    -6.380000000
H     0.801000000    -0.883000000    -6.146000000
C    -0.532000000     0.210000000    -4.817000000
C     0.460000000     1.149000000    -4.401000000
C    -0.004000000     2.391000000    -3.896000000
H     0.670000000     3.154000000    -3.515000000
C    -1.372000000     2.640000000    -3.685000000
O    -1.795000000     3.805000000    -3.048000000
C    -1.982000000     3.732000000    -1.558000000
H    -1.476000000     2.793000000    -1.287000000
C    -1.213000000     4.807000000    -0.741000000
C    -1.551000000     4.949000000     0.572000000
H    -2.200000000     4.206000000     1.027000000
C    -0.165000000     5.611000000    -1.278000000
H     0.049000000     5.543000000    -2.342000000
C     0.654000000     6.332000000    -0.371000000
O     1.813000000     6.959000000    -0.793000000
C     0.258000000     6.433000000     0.946000000
H     0.819000000     6.957000000     1.716000000
C    -0.849000000     5.770000000     1.431000000
O    -1.102000000     5.841000000     2.815000000
C    -2.123000000     5.259000000     3.477000000
C    -1.864000000     4.199000000     4.291000000
H    -0.867000000     3.847000000     4.543000000
C    -3.388000000     5.717000000     3.258000000
H    -3.629000000     6.682000000     2.818000000
C    -4.437000000     5.064000000     3.921000000
H    -5.423000000     5.503000000     3.791000000
C    -4.236000000     3.981000000     4.788000000
H    -5.033000000     3.553000000     5.391000000
C    -2.932000000     3.590000000     4.967000000
O    -2.651000000     2.520000000     5.854000000
C    -2.872000000     1.215000000     5.417000000
C    -2.477000000     0.177000000     6.272000000
H    -2.126000000     0.383000000     7.280000000
C    -2.647000000    -1.141000000     5.827000000
O    -2.313000000    -2.203000000     6.595000000
C    -1.499000000    -3.264000000     6.205000000
C    -0.282000000    -3.069000000     5.583000000
H     0.034000000    -2.029000000     5.612000000
C    -1.964000000    -4.564000000     6.357000000
H    -2.921000000    -4.736000000     6.844000000
C    -1.219000000    -5.648000000     5.925000000
H    -1.555000000    -6.669000000     6.089000000
C     0.068000000    -5.448000000     5.349000000
H     0.714000000    -6.320000000     5.283000000
C     0.524000000    -4.117000000     5.201000000
O     1.795000000    -3.959000000     4.702000000
C     2.296000000    -3.864000000     3.432000000
C     3.617000000    -3.871000000     3.038000000
H     4.371000000    -3.777000000     3.816000000
C     4.087000000    -3.900000000     1.744000000
O     5.384000000    -3.585000000     1.426000000
C     5.947000000    -3.431000000     0.219000000
C     6.227000000    -2.221000000    -0.265000000
H     6.112000000    -1.315000000     0.324000000
C     6.181000000    -4.526000000    -0.597000000
H     6.048000000    -5.577000000    -0.352000000
C     6.719000000    -4.369000000    -1.845000000
H     7.070000000    -5.266000000    -2.350000000
C     7.174000000    -3.130000000    -2.236000000
H     7.648000000    -3.017000000    -3.207000000
C     6.780000000    -2.027000000    -1.532000000
O     7.097000000    -0.696000000    -1.910000000
C     5.966000000     0.097000000    -2.190000000
C     6.004000000     1.385000000    -1.676000000
H     6.930000000     1.706000000    -1.205000000
C     4.926000000     2.244000000    -1.931000000
O     5.017000000     3.538000000    -1.424000000
C     4.345000000     4.677000000    -1.951000000
C     4.652000000     5.181000000    -3.228000000
H     5.234000000     4.523000000    -3.868000000
C     3.854000000     6.243000000    -3.768000000
H     3.964000000     6.633000000    -4.776000000
C     2.955000000     6.879000000    -2.938000000
H     2.438000000     7.769000000    -3.289000000
C     2.713000000     6.436000000    -1.659000000
C     3.449000000     5.392000000    -1.123000000
H     3.325000000     5.052000000    -0.099000000
O     4.022000000    -0.868000000     4.773000000
H     3.424000000    -1.432000000     5.265000000
H     4.020000000    -0.040000000     5.254000000
O     7.063000000     0.956000000     5.515000000
H     7.287000000     1.646000000     6.139000000
H     6.117000000     1.043000000     5.392000000
O     4.617000000     1.639000000     1.831000000
H     5.243000000     0.930000000     1.978000000
H     3.830000000     1.200000000     1.507000000
O     1.950000000     6.333000000     4.219000000
H     1.030000000     6.178000000     4.007000000
H     2.298000000     5.466000000     4.428000000
O     4.217000000     4.020000000     2.868000000
H     3.503000000     3.956000000     3.503000000
H     4.215000000     3.175000000     2.420000000
O     3.824000000     4.288000000     6.725000000
H     4.578000000     4.740000000     6.346000000
H     3.323000000     3.984000000     5.968000000
O     2.774000000    -2.072000000     6.932000000
H     2.143000000    -1.354000000     6.988000000
H     2.954000000    -2.304000000     7.842000000
O     7.061000000     3.441000000     1.853000000
H     7.243000000     3.955000000     2.640000000
H     6.125000000     3.250000000     1.903000000
O     5.933000000     5.918000000     3.721000000
H     5.368000000     5.291000000     3.270000000
H     6.095000000     5.522000000     4.578000000
O     4.278000000     1.600000000     5.898000000
H     3.326000000     1.595000000     5.799000000
H     4.457000000     2.361000000     6.449000000
O     1.045000000     0.206000000     7.466000000
H     1.053000000     0.785000000     6.704000000
H     1.312000000     0.767000000     8.195000000
O     6.857000000     4.948000000     6.276000000
H     7.650000000     4.743000000     5.781000000
H     6.632000000     4.130000000     6.718000000
O     0.118000000     3.637000000    10.062000000
H     0.636000000     4.173000000     9.462000000
H    -0.084000000     2.846000000     9.563000000
O     0.341000000     6.973000000     7.344000000
H     0.659000000     6.082000000     7.197000000
H     1.109000000     7.454000000     7.653000000
O     6.434000000     2.847000000     8.059000000
H     6.580000000     2.249000000     8.792000000
H     5.634000000     3.320000000     8.291000000
O    -3.084000000     3.980000000     8.447000000
H    -2.520000000     4.753000000     8.427000000
H    -2.912000000     3.537000000     7.615000000
O     6.236000000    -0.352000000     3.028000000
H     6.296000000     0.402000000     3.614000000
H     5.653000000    -0.962000000     3.481000000
O     2.717000000    -0.445000000     1.599000000
H     1.814000000    -0.182000000     1.777000000
H     2.861000000    -1.204000000     2.165000000
O     1.124000000     4.320000000     7.375000000
H     2.073000000     4.344000000     7.502000000
H     0.988000000     3.635000000     6.721000000
