201
-1266.22430
C    -2.801000000    -0.964000000     4.411000000
H    -2.345000000    -1.916000000     4.155000000
C    -3.491000000    -0.213000000     3.489000000
C    -3.991000000     1.017000000     3.819000000
H    -4.684000000     1.611000000     3.229000000
C    -3.695000000    -0.810000000     2.101000000
O    -3.877000000    -2.191000000     2.195000000
H    -2.834000000    -0.677000000     1.429000000
O    -4.826000000    -0.239000000     1.416000000
C    -4.549000000     0.249000000     0.173000000
C    -4.217000000     1.550000000     0.021000000
H    -3.998000000     2.140000000     0.908000000
C    -4.037000000     2.087000000    -1.229000000
O    -3.381000000     3.361000000    -1.309000000
C    -4.142000000     1.189000000    -2.330000000
C    -3.816000000     1.576000000    -3.719000000
H    -4.530000000     1.087000000    -4.384000000
C    -2.324000000     1.380000000    -3.972000000
C    -1.907000000     0.191000000    -4.653000000
H    -2.665000000    -0.542000000    -4.918000000
H    -3.928000000     2.659000000    -3.796000000
C    -4.532000000    -0.143000000    -2.174000000
H    -4.663000000    -0.818000000    -3.015000000
C    -4.794000000    -0.586000000    -0.893000000
C    -5.202000000    -2.027000000    -0.543000000
H    -5.699000000    -2.462000000    -1.413000000
H    -5.917000000    -2.061000000     0.282000000
C    -3.956000000    -2.888000000    -0.162000000
C    -3.264000000    -3.588000000    -1.162000000
H    -3.449000000    -3.446000000    -2.223000000
C    -3.495000000    -3.085000000     1.170000000
C    -2.427000000    -3.902000000     1.442000000
H    -2.128000000    -3.895000000     2.487000000
C    -1.747000000    -4.549000000     0.453000000
O    -0.437000000    -5.068000000     0.726000000
C     0.684000000    -4.222000000     0.414000000
C     1.797000000    -4.213000000     1.492000000
C     3.160000000    -4.358000000     1.229000000
H     3.472000000    -4.549000000     0.205000000
C     1.420000000    -4.004000000     2.843000000
H     0.378000000    -3.877000000     3.126000000
O     1.234000000    -4.578000000    -0.867000000
H     0.181000000    -3.244000000     0.441000000
C    -2.180000000    -4.362000000    -0.868000000
C    -1.347000000    -4.836000000    -2.029000000
H    -1.989000000    -5.046000000    -2.887000000
H    -0.919000000    -5.830000000    -1.889000000
C    -0.312000000    -3.867000000    -2.485000000
C    -0.584000000    -3.142000000    -3.664000000
H    -1.604000000    -3.093000000    -4.036000000
C     0.989000000    -3.844000000    -1.990000000
C     1.973000000    -3.093000000    -2.535000000
H     2.960000000    -3.069000000    -2.080000000
C     1.637000000    -2.241000000    -3.619000000
O     2.563000000    -1.386000000    -4.003000000
C     2.386000000    -0.001000000    -3.536000000
C     3.648000000     0.627000000    -3.120000000
C     4.480000000    -0.180000000    -2.268000000
H     4.104000000    -1.131000000    -1.899000000
C     4.025000000     1.924000000    -3.401000000
H     3.498000000     2.627000000    -4.041000000
O     1.780000000     0.747000000    -4.593000000
H     1.687000000     0.042000000    -2.689000000
C     0.390000000    -2.263000000    -4.227000000
C     0.002000000    -1.383000000    -5.444000000
H    -0.747000000    -1.888000000    -6.057000000
H     0.885000000    -1.185000000    -6.056000000
C    -0.519000000    -0.077000000    -4.850000000
C     0.404000000     0.959000000    -4.526000000
C    -0.050000000     2.206000000    -4.082000000
H     0.784000000     2.903000000    -4.096000000
C    -1.350000000     2.414000000    -3.754000000
O    -1.693000000     3.563000000    -3.052000000
C    -1.972000000     3.362000000    -1.675000000
H    -1.555000000     2.377000000    -1.418000000
C    -1.225000000     4.414000000    -0.876000000
C    -1.640000000     4.713000000     0.442000000
H    -2.559000000     4.268000000     0.815000000
C     0.105000000     4.841000000    -1.221000000
H     0.570000000     4.576000000    -2.167000000
C     0.848000000     5.651000000    -0.344000000
O     2.157000000     6.006000000    -0.599000000
C     0.363000000     5.990000000     0.893000000
H     1.006000000     6.587000000     1.535000000
C    -0.849000000     5.451000000     1.305000000
O    -1.164000000     5.632000000     2.624000000
C    -2.380000000     5.327000000     3.140000000
C    -2.647000000     4.213000000     3.926000000
H    -1.824000000     3.506000000     3.992000000
C    -3.397000000     6.211000000     2.819000000
H    -3.272000000     7.035000000     2.122000000
C    -4.620000000     6.001000000     3.397000000
H    -5.465000000     6.682000000     3.332000000
C    -4.878000000     4.910000000     4.207000000
H    -5.819000000     4.625000000     4.670000000
C    -3.867000000     3.987000000     4.561000000
O    -4.082000000     2.811000000     5.327000000
C    -3.613000000     1.575000000     4.993000000
C    -2.880000000     0.895000000     5.949000000
H    -2.567000000     1.413000000     6.853000000
C    -2.469000000    -0.372000000     5.661000000
O    -1.620000000    -1.081000000     6.526000000
C    -1.134000000    -2.286000000     6.205000000
C     0.161000000    -2.454000000     5.814000000
H     0.780000000    -1.574000000     5.661000000
C    -1.950000000    -3.385000000     6.204000000
H    -3.025000000    -3.288000000     6.336000000
C    -1.443000000    -4.669000000     6.069000000
H    -2.105000000    -5.523000000     6.181000000
C    -0.111000000    -4.887000000     5.740000000
H     0.256000000    -5.904000000     5.624000000
C     0.678000000    -3.762000000     5.619000000
O     1.982000000    -3.933000000     5.253000000
C     2.339000000    -4.006000000     3.930000000
C     3.696000000    -4.007000000     3.571000000
H     4.420000000    -4.059000000     4.381000000
C     4.099000000    -4.181000000     2.267000000
O     5.447000000    -4.172000000     2.026000000
C     5.960000000    -3.667000000     0.828000000
C     5.887000000    -2.303000000     0.565000000
H     5.449000000    -1.633000000     1.301000000
C     6.690000000    -4.537000000     0.078000000
H     6.721000000    -5.583000000     0.374000000
C     7.226000000    -4.067000000    -1.145000000
H     7.656000000    -4.678000000    -1.933000000
C     7.052000000    -2.738000000    -1.509000000
H     7.408000000    -2.358000000    -2.464000000
C     6.442000000    -1.828000000    -0.647000000
O     6.411000000    -0.420000000    -0.900000000
C     5.739000000     0.274000000    -1.871000000
C     6.077000000     1.549000000    -2.157000000
H     6.953000000     1.978000000    -1.678000000
C     5.232000000     2.396000000    -2.862000000
O     5.612000000     3.726000000    -3.057000000
C     4.579000000     4.660000000    -2.976000000
C     4.358000000     5.503000000    -4.118000000
H     4.938000000     5.299000000    -5.015000000
C     3.308000000     6.397000000    -4.130000000
H     2.950000000     6.871000000    -5.040000000
C     2.595000000     6.551000000    -2.930000000
H     1.783000000     7.266000000    -3.038000000
C     2.814000000     5.787000000    -1.761000000
C     3.854000000     4.804000000    -1.782000000
H     3.997000000     4.213000000    -0.881000000
O     3.185000000    -0.535000000     4.503000000
H     3.169000000    -0.867000000     5.400000000
H     2.728000000     0.305000000     4.551000000
O     6.554000000     2.372000000     4.750000000
H     6.918000000     1.543000000     5.061000000
H     7.260000000     3.006000000     4.878000000
O     5.503000000     1.689000000     2.378000000
H     5.528000000     1.873000000     3.317000000
H     4.897000000     0.953000000     2.294000000
O     1.040000000     4.769000000     6.033000000
H     1.724000000     5.274000000     6.474000000
H     1.482000000     4.369000000     5.284000000
O     4.136000000     5.220000000     2.757000000
H     3.664000000     5.974000000     2.403000000
H     3.448000000     4.608000000     3.018000000
O     3.328000000     5.981000000     7.117000000
H     3.907000000     6.235000000     7.835000000
H     3.734000000     5.196000000     6.748000000
O     3.444000000    -1.662000000     7.119000000
H     3.391000000    -2.551000000     7.469000000
H     3.296000000    -1.097000000     7.877000000
O     8.140000000     0.418000000     1.777000000
H     8.578000000     0.939000000     1.104000000
H     7.362000000     0.928000000     2.005000000
O     5.763000000     6.253000000     4.588000000
H     5.409000000     5.515000000     4.091000000
H     5.938000000     5.894000000     5.458000000
O     4.300000000     3.770000000     5.443000000
H     5.058000000     3.198000000     5.326000000
H     3.612000000     3.368000000     4.913000000
O     2.840000000     0.544000000     8.811000000
H     2.699000000     1.309000000     8.253000000
H     1.960000000     0.280000000     9.082000000
O     6.123000000     4.293000000     1.372000000
H     5.762000000     3.413000000     1.479000000
H     5.644000000     4.827000000     2.006000000
O    -0.921000000     2.091000000     9.370000000
H    -0.591000000     2.120000000     8.472000000
H    -1.874000000     2.086000000     9.276000000
O    -0.676000000     8.273000000     4.843000000
H     0.280000000     8.317000000     4.813000000
H    -0.886000000     7.403000000     4.501000000
O     4.843000000     3.641000000     8.662000000
H     4.101000000     3.505000000     9.252000000
H     4.475000000     3.530000000     7.786000000
O     5.645000000    -1.944000000     5.033000000
H     5.121000000    -1.816000000     4.242000000
H     5.062000000    -1.693000000     5.750000000
O     3.688000000    -0.126000000     1.912000000
H     2.916000000     0.359000000     1.621000000
H     3.432000000    -0.501000000     2.755000000
O     2.625000000     7.967000000     5.114000000
H     3.068000000     7.370000000     4.511000000
H     2.476000000     7.444000000     5.902000000
O     0.027000000     2.450000000     6.945000000
H     0.163000000     3.395000000     7.021000000
H     0.393000000     2.224000000     6.090000000
