201
-1246.66174
C    -4.318000000     2.521000000     1.684000000
H    -4.647000000     2.637000000     0.654000000
C    -3.084000000     3.094000000     2.054000000
C    -2.725000000     3.008000000     3.371000000
H    -1.809000000     3.495000000     3.694000000
C    -2.116000000     3.607000000     1.070000000
O    -2.800000000     4.253000000    -0.027000000
H    -1.544000000     2.711000000     0.787000000
O    -1.248000000     4.583000000     1.654000000
C     0.099000000     4.570000000     1.282000000
C     0.979000000     3.870000000     2.101000000
H     0.687000000     3.553000000     3.099000000
C     2.267000000     3.555000000     1.644000000
O     3.036000000     2.771000000     2.503000000
C     2.748000000     3.997000000     0.406000000
C     4.174000000     3.660000000    -0.033000000
H     4.560000000     4.471000000    -0.655000000
C     4.307000000     2.188000000    -0.574000000
C     4.269000000     1.981000000    -1.975000000
H     4.166000000     2.830000000    -2.646000000
H     4.812000000     3.693000000     0.852000000
C     1.847000000     4.794000000    -0.345000000
H     2.244000000     5.157000000    -1.289000000
C     0.523000000     4.950000000     0.023000000
C    -0.466000000     5.625000000    -0.937000000
H     0.135000000     6.194000000    -1.650000000
H    -1.095000000     6.380000000    -0.461000000
C    -1.158000000     4.472000000    -1.734000000
C    -0.584000000     3.971000000    -2.919000000
H     0.280000000     4.515000000    -3.290000000
C    -2.323000000     3.930000000    -1.291000000
C    -2.979000000     2.937000000    -2.068000000
H    -3.889000000     2.508000000    -1.656000000
C    -2.414000000     2.482000000    -3.270000000
O    -3.038000000     1.459000000    -3.898000000
C    -2.471000000     0.131000000    -3.867000000
C    -3.487000000    -1.035000000    -3.617000000
C    -3.128000000    -2.349000000    -3.930000000
H    -2.234000000    -2.523000000    -4.523000000
C    -4.628000000    -0.762000000    -2.842000000
H    -4.824000000     0.248000000    -2.489000000
O    -1.633000000    -0.225000000    -4.879000000
H    -1.762000000     0.089000000    -3.027000000
C    -1.239000000     3.062000000    -3.726000000
C    -0.495000000     2.615000000    -5.004000000
H     0.196000000     3.416000000    -5.278000000
H    -1.120000000     2.610000000    -5.900000000
C     0.283000000     1.341000000    -4.833000000
C     1.642000000     1.497000000    -4.548000000
H     2.191000000     2.435000000    -4.524000000
C    -0.240000000     0.027000000    -4.841000000
C     0.575000000    -1.035000000    -4.556000000
H     0.184000000    -2.043000000    -4.670000000
C     1.883000000    -0.851000000    -4.196000000
O     2.516000000    -1.964000000    -3.694000000
C     2.822000000    -1.941000000    -2.300000000
C     2.502000000    -3.225000000    -1.512000000
C     1.349000000    -3.924000000    -1.671000000
H     0.627000000    -3.423000000    -2.311000000
C     3.514000000    -3.768000000    -0.654000000
H     4.495000000    -3.329000000    -0.492000000
O     4.226000000    -1.612000000    -2.054000000
H     2.122000000    -1.215000000    -1.860000000
C     2.420000000     0.416000000    -4.195000000
C     3.914000000     0.556000000    -3.997000000
H     4.249000000     1.460000000    -4.509000000
H     4.477000000    -0.293000000    -4.391000000
C     4.235000000     0.694000000    -2.534000000
C     4.451000000    -0.370000000    -1.708000000
C     4.619000000    -0.178000000    -0.327000000
H     4.627000000    -1.004000000     0.379000000
C     4.516000000     1.046000000     0.253000000
O     4.493000000     1.072000000     1.679000000
C     3.197000000     1.354000000     2.265000000
H     2.432000000     0.967000000     1.575000000
C     3.030000000     0.458000000     3.462000000
C     2.093000000     0.854000000     4.426000000
H     1.752000000     1.886000000     4.411000000
C     3.599000000    -0.856000000     3.507000000
H     4.176000000    -1.277000000     2.688000000
C     3.452000000    -1.626000000     4.610000000
O     4.285000000    -2.724000000     4.868000000
C     2.596000000    -1.191000000     5.627000000
H     2.610000000    -1.779000000     6.542000000
C     1.894000000    -0.007000000     5.521000000
O     1.176000000     0.486000000     6.612000000
C     0.260000000     1.504000000     6.537000000
C    -1.007000000     1.375000000     5.957000000
H    -1.257000000     0.518000000     5.337000000
C     0.597000000     2.657000000     7.217000000
H     1.592000000     2.665000000     7.655000000
C    -0.336000000     3.661000000     7.419000000
H     0.033000000     4.495000000     8.011000000
C    -1.643000000     3.526000000     7.012000000
H    -2.385000000     4.292000000     7.225000000
C    -1.947000000     2.431000000     6.208000000
O    -3.236000000     2.286000000     5.723000000
C    -3.508000000     2.323000000     4.346000000
C    -4.740000000     1.852000000     3.920000000
H    -5.335000000     1.250000000     4.603000000
C    -5.101000000     1.879000000     2.597000000
O    -6.262000000     1.231000000     2.288000000
C    -6.661000000     1.038000000     0.961000000
C    -6.553000000    -0.235000000     0.397000000
H    -6.215000000    -1.007000000     1.083000000
C    -7.309000000     2.058000000     0.242000000
H    -7.429000000     3.079000000     0.594000000
C    -7.661000000     1.825000000    -1.144000000
H    -8.217000000     2.584000000    -1.689000000
C    -7.387000000     0.555000000    -1.718000000
H    -7.762000000     0.415000000    -2.728000000
C    -6.811000000    -0.429000000    -0.952000000
O    -6.425000000    -1.634000000    -1.508000000
C    -5.417000000    -1.803000000    -2.405000000
C    -5.109000000    -3.146000000    -2.809000000
H    -5.747000000    -4.000000000    -2.598000000
C    -3.958000000    -3.410000000    -3.571000000
O    -3.751000000    -4.739000000    -4.047000000
C    -2.583000000    -5.424000000    -3.800000000
C    -1.959000000    -5.287000000    -2.532000000
H    -2.368000000    -4.616000000    -1.781000000
C    -2.127000000    -6.284000000    -4.794000000
H    -2.672000000    -6.485000000    -5.713000000
C    -0.939000000    -6.946000000    -4.515000000
H    -0.649000000    -7.708000000    -5.235000000
C    -0.262000000    -6.723000000    -3.265000000
H     0.652000000    -7.257000000    -3.019000000
C    -0.788000000    -5.907000000    -2.279000000
O    -0.123000000    -5.741000000    -1.068000000
C     1.115000000    -5.131000000    -0.971000000
C     2.043000000    -5.552000000    -0.022000000
H     1.767000000    -6.468000000     0.493000000
C     3.161000000    -4.817000000     0.177000000
O     4.172000000    -5.497000000     0.907000000
C     4.867000000    -4.850000000     1.913000000
C     6.135000000    -5.368000000     2.281000000
H     6.554000000    -6.245000000     1.795000000
C     6.761000000    -4.997000000     3.479000000
H     7.711000000    -5.493000000     3.661000000
C     6.116000000    -4.146000000     4.377000000
H     6.534000000    -3.914000000     5.353000000
C     4.885000000    -3.582000000     3.990000000
C     4.310000000    -3.884000000     2.774000000
H     3.377000000    -3.367000000     2.561000000
O    -7.310000000    -6.563000000     1.225000000
H    -7.252000000    -5.632000000     1.439000000
H    -8.239000000    -6.773000000     1.321000000
O   -10.084000000    -3.878000000     3.055000000
H   -10.270000000    -4.368000000     2.254000000
H    -9.137000000    -3.743000000     3.039000000
O    -8.621000000    -0.655000000     3.630000000
H    -9.340000000    -0.639000000     4.262000000
H    -9.036000000    -0.452000000     2.791000000
O    -4.420000000    -5.386000000     3.254000000
H    -4.072000000    -6.126000000     2.756000000
H    -4.291000000    -4.630000000     2.681000000
O    -0.687000000    -4.510000000     1.966000000
H    -1.512000000    -4.364000000     1.503000000
H    -0.727000000    -5.424000000     2.245000000
O    -3.604000000    -8.510000000    -1.198000000
H    -3.706000000    -7.620000000    -0.862000000
H    -2.788000000    -8.822000000    -0.806000000
O    -4.935000000    -0.624000000     6.894000000
H    -4.825000000    -1.071000000     6.055000000
H    -5.795000000    -0.908000000     7.206000000
O    -2.483000000    -2.433000000     5.489000000
H    -2.787000000    -2.269000000     4.596000000
H    -2.586000000    -3.377000000     5.607000000
O    -6.217000000    -4.444000000     4.891000000
H    -6.167000000    -3.538000000     4.587000000
H    -5.584000000    -4.914000000     4.348000000
O    -1.102000000    -8.098000000     0.226000000
H    -1.051000000    -7.745000000     1.114000000
H    -0.712000000    -7.419000000    -0.325000000
O    -4.370000000    -5.938000000    -0.305000000
H    -5.151000000    -6.159000000     0.201000000
H    -4.199000000    -5.020000000    -0.094000000
O     1.135000000    -4.633000000     5.462000000
H     0.990000000    -4.050000000     4.717000000
H     2.054000000    -4.502000000     5.694000000
O     0.305000000    -2.920000000     3.644000000
H    -0.188000000    -3.447000000     3.014000000
H     0.063000000    -2.017000000     3.441000000
O    -4.108000000    -7.688000000     1.855000000
H    -4.026000000    -7.317000000     0.976000000
H    -3.916000000    -8.619000000     1.741000000
O    -2.635000000    -5.312000000     5.376000000
H    -3.197000000    -5.258000000     4.603000000
H    -2.050000000    -6.048000000     5.195000000
O    -1.172000000    -7.199000000     2.663000000
H    -1.749000000    -7.948000000     2.810000000
H    -0.679000000    -7.112000000     3.480000000
O    -7.809000000    -1.098000000     6.451000000
H    -7.207000000    -1.173000000     5.711000000
H    -8.371000000    -1.870000000     6.383000000
O    -6.017000000    -1.727000000     4.384000000
H    -5.410000000    -1.938000000     3.675000000
H    -6.839000000    -1.516000000     3.942000000
O    -6.662000000    -3.555000000     0.782000000
H    -5.749000000    -3.419000000     1.036000000
H    -6.678000000    -3.376000000    -0.158000000
