201
-1241.93575
C    -4.340000000     2.846000000     1.438000000
H    -4.541000000     2.453000000     0.445000000
C    -3.241000000     3.598000000     1.803000000
C    -3.034000000     3.874000000     3.166000000
H    -2.086000000     4.210000000     3.580000000
C    -2.060000000     3.859000000     0.815000000
O    -2.604000000     4.285000000    -0.467000000
H    -1.644000000     2.863000000     0.603000000
O    -1.014000000     4.735000000     1.365000000
C     0.311000000     4.526000000     1.059000000
C     1.087000000     4.051000000     2.107000000
H     0.650000000     3.848000000     3.081000000
C     2.430000000     3.816000000     1.911000000
O     3.059000000     3.036000000     2.867000000
C     3.084000000     4.152000000     0.648000000
C     4.452000000     3.564000000     0.291000000
H     4.877000000     4.229000000    -0.464000000
C     4.486000000     2.164000000    -0.295000000
C     4.375000000     1.922000000    -1.679000000
H     4.308000000     2.784000000    -2.338000000
H     5.069000000     3.608000000     1.190000000
C     2.313000000     4.711000000    -0.399000000
H     2.774000000     4.904000000    -1.365000000
C     0.925000000     4.880000000    -0.214000000
C     0.008000000     5.401000000    -1.304000000
H     0.526000000     5.895000000    -2.129000000
H    -0.691000000     6.136000000    -0.901000000
C    -0.710000000     4.266000000    -2.025000000
C    -0.139000000     3.686000000    -3.123000000
H     0.798000000     4.053000000    -3.533000000
C    -1.965000000     3.818000000    -1.549000000
C    -2.570000000     2.746000000    -2.206000000
H    -3.497000000     2.331000000    -1.819000000
C    -2.029000000     2.201000000    -3.333000000
O    -2.697000000     1.156000000    -3.972000000
C    -2.067000000    -0.157000000    -3.809000000
C    -3.043000000    -1.282000000    -3.407000000
C    -2.816000000    -2.557000000    -3.949000000
H    -2.028000000    -2.798000000    -4.658000000
C    -4.027000000    -1.041000000    -2.426000000
H    -4.161000000    -0.022000000    -2.072000000
O    -1.252000000    -0.467000000    -4.980000000
H    -1.431000000    -0.067000000    -2.915000000
C    -0.825000000     2.748000000    -3.818000000
C    -0.287000000     2.206000000    -5.082000000
H     0.254000000     2.920000000    -5.706000000
H    -1.025000000     2.095000000    -5.880000000
C     0.581000000     1.013000000    -4.883000000
C     2.006000000     1.155000000    -4.656000000
H     2.501000000     2.100000000    -4.863000000
C     0.021000000    -0.272000000    -4.754000000
C     0.797000000    -1.348000000    -4.343000000
H     0.390000000    -2.292000000    -3.988000000
C     2.138000000    -1.193000000    -4.041000000
O     2.785000000    -2.246000000    -3.418000000
C     2.963000000    -2.315000000    -1.960000000
C     2.709000000    -3.694000000    -1.409000000
C     1.878000000    -4.565000000    -2.113000000
H     1.305000000    -4.210000000    -2.965000000
C     3.343000000    -4.076000000    -0.205000000
H     3.963000000    -3.329000000     0.283000000
O     4.255000000    -1.801000000    -1.608000000
H     2.257000000    -1.597000000    -1.519000000
C     2.756000000     0.081000000    -4.135000000
C     4.232000000     0.310000000    -3.690000000
H     4.816000000     0.975000000    -4.331000000
H     4.721000000    -0.657000000    -3.822000000
C     4.288000000     0.588000000    -2.207000000
C     4.365000000    -0.486000000    -1.245000000
C     4.398000000    -0.247000000     0.111000000
H     4.455000000    -1.046000000     0.846000000
C     4.520000000     1.036000000     0.602000000
O     4.400000000     1.254000000     1.969000000
C     3.116000000     1.637000000     2.649000000
H     2.230000000     1.443000000     2.027000000
C     2.766000000     0.806000000     3.859000000
C     1.671000000     1.116000000     4.679000000
H     1.231000000     2.100000000     4.535000000
C     3.348000000    -0.470000000     4.039000000
H     4.184000000    -0.772000000     3.414000000
C     2.737000000    -1.388000000     4.970000000
O     3.262000000    -2.613000000     5.237000000
C     1.613000000    -1.054000000     5.659000000
H     1.179000000    -1.803000000     6.316000000
C     1.041000000     0.160000000     5.517000000
O    -0.180000000     0.405000000     6.157000000
C    -0.732000000     1.665000000     6.286000000
C    -1.911000000     1.984000000     5.675000000
H    -2.356000000     1.247000000     5.011000000
C    -0.182000000     2.513000000     7.292000000
H     0.800000000     2.302000000     7.707000000
C    -0.781000000     3.692000000     7.668000000
H    -0.269000000     4.307000000     8.403000000
C    -1.964000000     4.058000000     7.010000000
H    -2.536000000     4.901000000     7.389000000
C    -2.556000000     3.190000000     6.068000000
O    -3.785000000     3.534000000     5.460000000
C    -3.985000000     3.467000000     4.089000000
C    -5.171000000     2.950000000     3.714000000
H    -5.837000000     2.543000000     4.470000000
C    -5.255000000     2.547000000     2.378000000
O    -6.294000000     1.703000000     2.105000000
C    -6.575000000     1.078000000     0.900000000
C    -6.132000000    -0.213000000     0.655000000
H    -5.584000000    -0.787000000     1.398000000
C    -7.355000000     1.792000000    -0.100000000
H    -7.728000000     2.789000000     0.121000000
C    -7.647000000     1.185000000    -1.321000000
H    -8.223000000     1.650000000    -2.118000000
C    -7.078000000    -0.062000000    -1.553000000
H    -7.199000000    -0.484000000    -2.548000000
C    -6.237000000    -0.722000000    -0.690000000
O    -5.837000000    -1.999000000    -1.036000000
C    -4.930000000    -2.063000000    -2.038000000
C    -4.716000000    -3.357000000    -2.562000000
H    -5.311000000    -4.192000000    -2.202000000
C    -3.699000000    -3.533000000    -3.449000000
O    -3.470000000    -4.798000000    -3.928000000
C    -2.239000000    -5.368000000    -4.061000000
C    -1.513000000    -5.548000000    -2.847000000
H    -1.913000000    -5.213000000    -1.893000000
C    -1.832000000    -6.035000000    -5.277000000
H    -2.537000000    -6.057000000    -6.104000000
C    -0.626000000    -6.694000000    -5.317000000
H    -0.329000000    -7.122000000    -6.271000000
C     0.126000000    -6.874000000    -4.120000000
H     1.074000000    -7.404000000    -4.157000000
C    -0.324000000    -6.236000000    -2.927000000
O     0.471000000    -6.453000000    -1.853000000
C     1.456000000    -5.669000000    -1.393000000
C     1.974000000    -6.106000000    -0.164000000
H     1.540000000    -7.008000000     0.260000000
C     2.964000000    -5.301000000     0.391000000
O     3.433000000    -5.726000000     1.554000000
C     4.124000000    -4.884000000     2.464000000
C     5.482000000    -4.544000000     2.309000000
H     5.956000000    -5.037000000     1.464000000
C     6.153000000    -3.666000000     3.171000000
H     7.195000000    -3.463000000     2.938000000
C     5.364000000    -3.069000000     4.216000000
H     5.829000000    -2.266000000     4.782000000
C     3.995000000    -3.318000000     4.293000000
C     3.389000000    -4.191000000     3.388000000
H     2.359000000    -4.487000000     3.576000000
O    -9.230000000    -5.528000000     2.876000000
H    -9.809000000    -4.948000000     3.371000000
H    -8.467000000    -4.988000000     2.672000000
O    -9.013000000    -2.750000000     0.978000000
H    -9.238000000    -2.645000000     0.054000000
H    -9.829000000    -2.572000000     1.446000000
O    -5.046000000    -7.005000000    -2.376000000
H    -4.228000000    -7.453000000    -2.590000000
H    -5.729000000    -7.567000000    -2.744000000
O    -3.924000000    -5.525000000     3.326000000
H    -3.719000000    -4.670000000     3.704000000
H    -4.069000000    -5.347000000     2.396000000
O    -1.062000000    -5.652000000     0.874000000
H    -0.511000000    -5.889000000     0.129000000
H    -1.396000000    -6.487000000     1.201000000
O    -3.038000000    -9.040000000    -1.188000000
H    -2.271000000    -9.570000000    -0.970000000
H    -3.155000000    -8.465000000    -0.431000000
O    -4.669000000    -1.803000000     7.129000000
H    -3.893000000    -1.767000000     6.569000000
H    -5.405000000    -1.810000000     6.517000000
O    -7.600000000    -0.204000000     5.494000000
H    -7.369000000    -0.965000000     4.962000000
H    -8.439000000    -0.435000000     5.892000000
O    -2.862000000    -1.624000000     4.840000000
H    -3.204000000    -2.201000000     4.157000000
H    -1.928000000    -1.828000000     4.881000000
O    -1.908000000    -3.872000000     7.269000000
H    -1.545000000    -3.102000000     6.830000000
H    -1.658000000    -4.607000000     6.709000000
O    -3.805000000    -6.330000000     0.058000000
H    -4.172000000    -6.210000000    -0.818000000
H    -3.697000000    -5.442000000     0.396000000
O    -7.105000000    -5.595000000    -1.047000000
H    -6.347000000    -6.033000000    -1.435000000
H    -6.806000000    -5.328000000    -0.178000000
O    -0.583000000    -3.152000000     4.907000000
H    -0.050000000    -3.861000000     5.265000000
H    -0.269000000    -3.047000000     4.009000000
O    -0.170000000    -3.102000000     2.342000000
H    -0.324000000    -3.891000000     1.821000000
H    -0.939000000    -2.555000000     2.181000000
O    -5.494000000    -7.572000000     5.320000000
H    -6.199000000    -7.606000000     4.673000000
H    -4.870000000    -6.941000000     4.961000000
O    -1.837000000    -7.270000000     4.028000000
H    -2.557000000    -6.787000000     3.621000000
H    -1.803000000    -6.939000000     4.925000000
O    -4.873000000    -8.620000000     1.173000000
H    -4.619000000    -7.777000000     0.800000000
H    -5.474000000    -8.996000000     0.530000000
O    -6.135000000    -2.473000000     4.799000000
H    -5.553000000    -2.380000000     4.044000000
H    -6.499000000    -3.354000000     4.713000000
O    -7.033000000    -4.392000000     1.865000000
H    -6.150000000    -4.181000000     1.561000000
H    -7.554000000    -3.621000000     1.640000000
