201
-1281.90815
C    -3.926000000     3.573000000     2.363000000
H    -4.339000000     3.934000000     1.425000000
C    -2.546000000     3.590000000     2.539000000
C    -1.997000000     2.973000000     3.683000000
H    -0.933000000     2.809000000     3.830000000
C    -1.547000000     4.043000000     1.447000000
O    -2.185000000     4.821000000     0.424000000
H    -1.160000000     3.183000000     0.880000000
O    -0.433000000     4.630000000     2.074000000
C     0.845000000     4.355000000     1.551000000
C     1.570000000     3.492000000     2.284000000
H     1.281000000     3.171000000     3.282000000
C     2.734000000     2.918000000     1.842000000
O     3.368000000     2.086000000     2.601000000
C     3.301000000     3.431000000     0.635000000
C     4.708000000     3.011000000     0.164000000
H     5.254000000     3.760000000    -0.414000000
C     4.554000000     1.735000000    -0.518000000
C     4.315000000     1.673000000    -1.880000000
H     4.307000000     2.627000000    -2.401000000
H     5.277000000     2.886000000     1.087000000
C     2.480000000     4.213000000    -0.236000000
H     2.774000000     4.473000000    -1.250000000
C     1.225000000     4.675000000     0.250000000
C     0.375000000     5.620000000    -0.641000000
H     1.123000000     6.023000000    -1.327000000
H    -0.011000000     6.500000000    -0.122000000
C    -0.656000000     4.868000000    -1.436000000
C    -0.309000000     4.435000000    -2.703000000
H     0.592000000     4.819000000    -3.175000000
C    -1.838000000     4.495000000    -0.897000000
C    -2.711000000     3.570000000    -1.451000000
H    -3.617000000     3.163000000    -1.009000000
C    -2.359000000     3.008000000    -2.662000000
O    -3.149000000     1.889000000    -3.068000000
C    -2.509000000     0.654000000    -3.072000000
C    -3.472000000    -0.469000000    -2.601000000
C    -3.438000000    -1.785000000    -3.137000000
H    -2.721000000    -2.025000000    -3.918000000
C    -4.442000000    -0.110000000    -1.641000000
H    -4.464000000     0.881000000    -1.196000000
O    -1.896000000     0.407000000    -4.364000000
H    -1.679000000     0.649000000    -2.350000000
C    -1.183000000     3.496000000    -3.317000000
C    -0.790000000     2.908000000    -4.667000000
H    -0.263000000     3.686000000    -5.223000000
H    -1.701000000     2.615000000    -5.192000000
C     0.108000000     1.628000000    -4.592000000
C     1.532000000     1.698000000    -4.431000000
H     2.067000000     2.643000000    -4.383000000
C    -0.534000000     0.388000000    -4.458000000
C     0.152000000    -0.798000000    -4.223000000
H    -0.363000000    -1.754000000    -4.182000000
C     1.568000000    -0.773000000    -4.239000000
O     2.252000000    -1.941000000    -4.032000000
C     2.450000000    -2.293000000    -2.698000000
C     2.189000000    -3.806000000    -2.432000000
C     1.223000000    -4.506000000    -3.182000000
H     0.814000000    -4.093000000    -4.101000000
C     2.672000000    -4.378000000    -1.224000000
H     3.255000000    -3.716000000    -0.590000000
O     3.792000000    -1.913000000    -2.298000000
H     1.769000000    -1.668000000    -2.103000000
C     2.260000000     0.503000000    -4.294000000
C     3.775000000     0.537000000    -4.093000000
H     4.197000000     1.419000000    -4.579000000
H     4.203000000    -0.302000000    -4.647000000
C     4.064000000     0.555000000    -2.586000000
C     4.128000000    -0.623000000    -1.801000000
C     4.462000000    -0.671000000    -0.471000000
H     4.374000000    -1.599000000     0.088000000
C     4.639000000     0.512000000     0.161000000
O     4.655000000     0.474000000     1.540000000
C     3.428000000     0.738000000     2.223000000
H     2.601000000     0.485000000     1.542000000
C     3.355000000    -0.225000000     3.462000000
C     2.755000000     0.249000000     4.621000000
H     2.501000000     1.303000000     4.709000000
C     3.556000000    -1.519000000     3.160000000
H     3.868000000    -1.847000000     2.172000000
C     3.285000000    -2.466000000     4.188000000
O     3.475000000    -3.807000000     3.999000000
C     2.807000000    -2.053000000     5.477000000
H     2.412000000    -2.844000000     6.110000000
C     2.506000000    -0.710000000     5.671000000
O     1.942000000    -0.359000000     6.876000000
C     1.042000000     0.718000000     6.842000000
C    -0.215000000     0.617000000     6.257000000
H    -0.587000000    -0.262000000     5.737000000
C     1.412000000     1.894000000     7.487000000
H     2.408000000     2.045000000     7.897000000
C     0.468000000     2.950000000     7.577000000
H     0.752000000     3.837000000     8.136000000
C    -0.845000000     2.792000000     7.057000000
H    -1.536000000     3.632000000     7.040000000
C    -1.131000000     1.657000000     6.310000000
O    -2.369000000     1.560000000     5.598000000
C    -2.820000000     2.440000000     4.648000000
C    -4.153000000     2.462000000     4.514000000
H    -4.722000000     1.986000000     5.308000000
C    -4.712000000     2.926000000     3.313000000
O    -6.069000000     2.731000000     3.025000000
C    -6.553000000     2.167000000     1.893000000
C    -6.109000000     0.936000000     1.425000000
H    -5.472000000     0.382000000     2.109000000
C    -7.555000000     2.844000000     1.186000000
H    -7.981000000     3.814000000     1.429000000
C    -8.042000000     2.334000000    -0.070000000
H    -8.766000000     2.877000000    -0.671000000
C    -7.562000000     1.102000000    -0.497000000
H    -7.998000000     0.649000000    -1.384000000
C    -6.641000000     0.392000000     0.273000000
O    -6.105000000    -0.844000000    -0.050000000
C    -5.327000000    -1.121000000    -1.182000000
C    -5.250000000    -2.453000000    -1.663000000
H    -5.922000000    -3.219000000    -1.283000000
C    -4.298000000    -2.767000000    -2.652000000
O    -4.306000000    -4.059000000    -3.143000000
C    -3.263000000    -4.604000000    -3.759000000
C    -2.212000000    -5.194000000    -3.143000000
H    -2.084000000    -5.064000000    -2.072000000
C    -3.398000000    -4.684000000    -5.135000000
H    -4.246000000    -4.184000000    -5.596000000
C    -2.523000000    -5.409000000    -5.977000000
H    -2.696000000    -5.521000000    -7.044000000
C    -1.484000000    -6.023000000    -5.305000000
H    -0.864000000    -6.717000000    -5.867000000
C    -1.303000000    -5.882000000    -3.886000000
O    -0.194000000    -6.494000000    -3.306000000
C     0.827000000    -5.776000000    -2.708000000
C     1.532000000    -6.432000000    -1.675000000
H     1.282000000    -7.460000000    -1.426000000
C     2.468000000    -5.736000000    -0.941000000
O     3.168000000    -6.343000000     0.034000000
C     3.972000000    -5.595000000     0.951000000
C     5.342000000    -5.568000000     0.805000000
H     5.848000000    -5.952000000    -0.078000000
C     6.128000000    -4.821000000     1.677000000
H     7.196000000    -4.726000000     1.496000000
C     5.542000000    -4.205000000     2.750000000
H     6.087000000    -3.687000000     3.535000000
C     4.121000000    -4.384000000     2.968000000
C     3.352000000    -5.105000000     2.087000000
H     2.304000000    -5.275000000     2.322000000
O    -6.141000000    -2.693000000     7.442000000
H    -6.079000000    -1.823000000     7.048000000
H    -6.366000000    -2.526000000     8.357000000
O    -0.171000000    -2.982000000     2.445000000
H    -0.352000000    -3.869000000     2.134000000
H    -0.385000000    -2.420000000     1.700000000
O    -7.499000000    -6.286000000     3.018000000
H    -6.817000000    -6.609000000     2.430000000
H    -8.206000000    -6.928000000     2.940000000
O    -3.132000000    -5.361000000     0.546000000
H    -3.587000000    -4.574000000     0.846000000
H    -2.204000000    -5.162000000     0.666000000
O    -6.665000000    -3.903000000     1.072000000
H    -5.801000000    -3.503000000     1.170000000
H    -6.501000000    -4.707000000     0.578000000
O    -7.435000000     1.225000000     5.130000000
H    -6.823000000     1.673000000     4.546000000
H    -7.463000000     0.326000000     4.803000000
O    -2.132000000    -2.800000000     4.724000000
H    -3.051000000    -2.631000000     4.514000000
H    -1.663000000    -2.620000000     3.909000000
O    -4.760000000    -0.247000000     6.436000000
H    -5.281000000    -0.640000000     5.735000000
H    -3.879000000    -0.597000000     6.304000000
O    -2.400000000    -2.601000000     7.622000000
H    -2.343000000    -2.759000000     6.680000000
H    -2.382000000    -3.474000000     8.014000000
O    -8.615000000    -2.641000000    -0.069000000
H    -9.248000000    -2.106000000     0.410000000
H    -7.912000000    -2.802000000     0.561000000
O    -4.707000000    -4.885000000     3.956000000
H    -5.010000000    -5.574000000     3.365000000
H    -4.684000000    -4.097000000     3.413000000
O    -6.279000000    -5.909000000    -1.241000000
H    -6.748000000    -6.470000000    -1.859000000
H    -5.670000000    -5.410000000    -1.786000000
O     0.347000000    -3.898000000     5.122000000
H    -0.594000000    -3.725000000     5.153000000
H     0.622000000    -3.574000000     4.264000000
O    -5.511000000    -6.830000000     1.229000000
H    -6.002000000    -6.964000000     0.418000000
H    -4.763000000    -6.292000000     0.971000000
O    -1.932000000    -5.879000000     3.713000000
H    -1.958000000    -6.529000000     4.415000000
H    -2.801000000    -5.477000000     3.727000000
O    -0.338000000    -5.481000000     0.699000000
H    -0.018000000    -6.032000000     1.413000000
H     0.073000000    -5.842000000    -0.086000000
O    -6.614000000    -1.277000000     4.456000000
H    -5.771000000    -1.420000000     4.027000000
H    -7.094000000    -2.094000000     4.318000000
O    -5.823000000    -5.814000000     6.555000000
H    -5.244000000    -5.730000000     5.797000000
H    -5.984000000    -4.912000000     6.833000000
O    -7.596000000    -3.677000000     3.555000000
H    -7.536000000    -4.627000000     3.655000000
H    -7.441000000    -3.523000000     2.623000000
