201
-1229.39747
C    -3.378000000     3.022000000     2.823000000
H    -3.859000000     3.609000000     2.046000000
C    -1.992000000     3.005000000     3.018000000
C    -1.438000000     2.126000000     4.026000000
H    -0.394000000     1.851000000     3.901000000
C    -1.058000000     3.550000000     1.918000000
O    -1.850000000     4.274000000     0.997000000
H    -0.715000000     2.686000000     1.330000000
O     0.049000000     4.312000000     2.467000000
C     1.260000000     4.028000000     1.961000000
C     2.124000000     3.110000000     2.623000000
H     1.755000000     2.712000000     3.564000000
C     3.277000000     2.673000000     1.921000000
O     4.088000000     1.740000000     2.512000000
C     3.587000000     3.133000000     0.664000000
C     4.780000000     2.591000000    -0.143000000
H     5.177000000     3.384000000    -0.781000000
C     4.570000000     1.255000000    -0.918000000
C     4.284000000     1.352000000    -2.243000000
H     4.161000000     2.354000000    -2.647000000
H     5.571000000     2.493000000     0.603000000
C     2.714000000     4.035000000     0.029000000
H     2.852000000     4.431000000    -0.974000000
C     1.591000000     4.504000000     0.665000000
C     0.688000000     5.545000000    -0.061000000
H     1.341000000     6.194000000    -0.648000000
H     0.131000000     6.119000000     0.682000000
C    -0.293000000     4.795000000    -0.888000000
C     0.009000000     4.574000000    -2.250000000
H     0.910000000     4.978000000    -2.705000000
C    -1.542000000     4.358000000    -0.394000000
C    -2.462000000     3.737000000    -1.252000000
H    -3.404000000     3.425000000    -0.808000000
C    -2.114000000     3.440000000    -2.530000000
O    -2.997000000     2.663000000    -3.188000000
C    -2.724000000     1.186000000    -3.216000000
C    -3.930000000     0.349000000    -2.875000000
C    -4.061000000    -0.958000000    -3.434000000
H    -3.282000000    -1.268000000    -4.125000000
C    -4.906000000     0.729000000    -1.974000000
H    -4.851000000     1.714000000    -1.517000000
O    -2.231000000     0.940000000    -4.550000000
H    -1.885000000     0.952000000    -2.544000000
C    -0.836000000     3.786000000    -3.006000000
C    -0.540000000     3.361000000    -4.476000000
H     0.153000000     4.136000000    -4.808000000
H    -1.471000000     3.351000000    -5.048000000
C     0.000000000     1.921000000    -4.523000000
C     1.411000000     1.742000000    -4.509000000
H     2.105000000     2.576000000    -4.444000000
C    -0.820000000     0.816000000    -4.622000000
C    -0.237000000    -0.430000000    -4.532000000
H    -0.899000000    -1.291000000    -4.485000000
C     1.156000000    -0.648000000    -4.554000000
O     1.644000000    -1.987000000    -4.428000000
C     2.042000000    -2.317000000    -3.125000000
C     1.524000000    -3.648000000    -2.579000000
C     0.359000000    -4.164000000    -3.029000000
H    -0.285000000    -3.665000000    -3.749000000
C     2.318000000    -4.462000000    -1.707000000
H     3.255000000    -4.122000000    -1.273000000
O     3.497000000    -2.251000000    -2.966000000
H     1.632000000    -1.506000000    -2.504000000
C     1.979000000     0.511000000    -4.435000000
C     3.484000000     0.272000000    -4.379000000
H     4.017000000     1.112000000    -4.828000000
H     3.646000000    -0.651000000    -4.940000000
C     3.998000000     0.149000000    -2.987000000
C     4.047000000    -1.121000000    -2.352000000
C     4.256000000    -1.090000000    -0.946000000
H     4.141000000    -2.031000000    -0.415000000
C     4.564000000     0.057000000    -0.250000000
O     4.742000000    -0.096000000     1.072000000
C     3.774000000     0.436000000     2.023000000
H     2.825000000     0.462000000     1.469000000
C     3.670000000    -0.546000000     3.183000000
C     3.421000000    -0.118000000     4.498000000
H     3.257000000     0.921000000     4.773000000
C     3.741000000    -1.949000000     2.973000000
H     3.858000000    -2.370000000     1.978000000
C     3.563000000    -2.799000000     4.020000000
O     3.527000000    -4.137000000     3.821000000
C     3.258000000    -2.398000000     5.279000000
H     3.236000000    -3.002000000     6.183000000
C     3.227000000    -1.030000000     5.517000000
O     2.930000000    -0.506000000     6.748000000
C     1.919000000     0.417000000     6.924000000
C     0.676000000     0.198000000     6.269000000
H     0.518000000    -0.744000000     5.750000000
C     2.072000000     1.537000000     7.772000000
H     3.020000000     1.757000000     8.256000000
C     0.950000000     2.384000000     7.949000000
H     1.160000000     3.322000000     8.456000000
C    -0.296000000     2.122000000     7.323000000
H    -1.173000000     2.731000000     7.524000000
C    -0.470000000     0.951000000     6.557000000
O    -1.680000000     0.703000000     5.967000000
C    -2.268000000     1.578000000     4.968000000
C    -3.665000000     1.714000000     4.854000000
H    -4.379000000     1.335000000     5.581000000
C    -4.198000000     2.336000000     3.738000000
O    -5.563000000     2.350000000     3.607000000
C    -6.115000000     2.373000000     2.289000000
C    -6.096000000     1.253000000     1.468000000
H    -5.613000000     0.362000000     1.861000000
C    -6.707000000     3.560000000     1.888000000
H    -6.554000000     4.420000000     2.534000000
C    -7.358000000     3.598000000     0.649000000
H    -7.946000000     4.428000000     0.266000000
C    -7.347000000     2.490000000    -0.161000000
H    -7.837000000     2.519000000    -1.131000000
C    -6.819000000     1.256000000     0.249000000
O    -6.777000000     0.203000000    -0.596000000
C    -5.905000000    -0.187000000    -1.595000000
C    -5.938000000    -1.467000000    -2.171000000
H    -6.728000000    -2.127000000    -1.821000000
C    -5.030000000    -1.871000000    -3.076000000
O    -5.210000000    -3.098000000    -3.670000000
C    -4.235000000    -4.013000000    -4.149000000
C    -3.320000000    -4.486000000    -3.282000000
H    -3.448000000    -4.373000000    -2.209000000
C    -4.023000000    -4.060000000    -5.588000000
H    -4.674000000    -3.639000000    -6.350000000
C    -3.032000000    -4.918000000    -6.054000000
H    -2.878000000    -4.971000000    -7.128000000
C    -2.110000000    -5.518000000    -5.137000000
H    -1.385000000    -6.184000000    -5.598000000
C    -2.305000000    -5.330000000    -3.767000000
O    -1.347000000    -5.892000000    -2.941000000
C    -0.123000000    -5.335000000    -2.561000000
C     0.573000000    -6.020000000    -1.537000000
H     0.110000000    -6.908000000    -1.116000000
C     1.804000000    -5.639000000    -1.183000000
O     2.523000000    -6.396000000    -0.307000000
C     3.452000000    -5.947000000     0.640000000
C     4.805000000    -6.185000000     0.447000000
H     5.138000000    -6.709000000    -0.446000000
C     5.772000000    -5.803000000     1.432000000
H     6.844000000    -5.927000000     1.302000000
C     5.360000000    -5.084000000     2.538000000
H     6.143000000    -4.707000000     3.190000000
C     4.017000000    -4.885000000     2.743000000
C     3.027000000    -5.269000000     1.802000000
H     1.972000000    -5.156000000     2.037000000
O    -5.321000000    -3.425000000     7.113000000
H    -5.013000000    -2.931000000     6.353000000
H    -5.476000000    -2.760000000     7.784000000
O     0.465000000    -4.220000000     4.628000000
H    -0.491000000    -4.238000000     4.662000000
H     0.670000000    -3.473000000     4.065000000
O    -2.159000000    -5.395000000     6.724000000
H    -2.010000000    -6.242000000     6.305000000
H    -3.090000000    -5.221000000     6.590000000
O    -4.258000000    -7.366000000    -1.663000000
H    -3.820000000    -6.686000000    -1.151000000
H    -4.376000000    -8.090000000    -1.049000000
O    -2.917000000    -5.191000000     0.060000000
H    -3.382000000    -4.393000000     0.311000000
H    -2.024000000    -5.059000000     0.379000000
O    -7.018000000    -3.434000000     0.725000000
H    -6.081000000    -3.241000000     0.710000000
H    -7.171000000    -3.940000000    -0.073000000
O    -7.483000000     0.583000000     4.792000000
H    -7.609000000     0.687000000     3.849000000
H    -7.349000000    -0.357000000     4.913000000
O    -1.916000000    -2.698000000     4.002000000
H    -2.474000000    -2.111000000     3.492000000
H    -2.137000000    -3.574000000     3.684000000
O    -4.389000000    -1.597000000     5.459000000
H    -4.703000000    -1.608000000     4.555000000
H    -3.504000000    -1.239000000     5.402000000
O    -1.420000000    -2.369000000     6.878000000
H    -1.482000000    -2.132000000     5.952000000
H    -1.412000000    -3.326000000     6.880000000
O    -3.202000000    -7.761000000     0.929000000
H    -2.663000000    -7.785000000     1.719000000
H    -2.841000000    -7.041000000     0.413000000
O    -9.669000000    -3.686000000     0.661000000
H    -9.787000000    -3.005000000    -0.001000000
H    -8.734000000    -3.666000000     0.862000000
O    -5.989000000    -4.009000000     3.495000000
H    -6.126000000    -4.601000000     2.755000000
H    -5.485000000    -3.282000000     3.130000000
O    -5.309000000    -5.866000000     1.733000000
H    -4.647000000    -6.557000000     1.713000000
H    -5.028000000    -5.246000000     1.060000000
O    -2.920000000    -5.151000000     3.482000000
H    -2.839000000    -6.102000000     3.405000000
H    -3.770000000    -4.951000000     3.089000000
O    -0.531000000    -5.782000000     1.491000000
H     0.183000000    -6.363000000     1.227000000
H    -0.604000000    -5.907000000     2.437000000
O    -7.581000000    -2.242000000     4.824000000
H    -6.853000000    -2.808000000     4.567000000
H    -8.308000000    -2.518000000     4.266000000
O    -6.695000000    -5.316000000     5.740000000
H    -6.559000000    -4.895000000     4.892000000
H    -6.362000000    -4.685000000     6.378000000
O    -8.012000000    -7.110000000     2.059000000
H    -7.538000000    -7.726000000     1.500000000
H    -7.444000000    -6.340000000     2.102000000
