201
-1230.40970
C    -3.461000000     2.846000000     2.362000000
H    -3.352000000     3.467000000     1.476000000
C    -2.378000000     2.444000000     3.137000000
C    -2.715000000     1.632000000     4.269000000
H    -1.936000000     1.346000000     4.971000000
C    -0.904000000     2.933000000     2.821000000
O    -0.871000000     4.215000000     2.124000000
H    -0.455000000     2.136000000     2.210000000
O    -0.076000000     3.029000000     3.955000000
C     1.121000000     2.394000000     3.802000000
C     1.317000000     1.186000000     4.399000000
H     0.503000000     0.708000000     4.937000000
C     2.528000000     0.499000000     4.072000000
O     2.538000000    -0.818000000     4.376000000
C     3.531000000     1.030000000     3.280000000
C     4.826000000     0.314000000     2.969000000
H     5.652000000     1.007000000     2.793000000
C     4.567000000    -0.446000000     1.682000000
C     4.892000000     0.155000000     0.495000000
H     5.404000000     1.114000000     0.467000000
H     5.174000000    -0.347000000     3.765000000
C     3.359000000     2.335000000     2.816000000
H     4.182000000     2.754000000     2.244000000
C     2.127000000     3.022000000     3.048000000
C     1.938000000     4.528000000     2.612000000
H     2.879000000     5.078000000     2.671000000
H     1.249000000     5.110000000     3.227000000
C     1.328000000     4.641000000     1.186000000
C     2.096000000     4.715000000     0.026000000
H     3.179000000     4.677000000     0.114000000
C    -0.053000000     4.419000000     1.046000000
C    -0.630000000     4.372000000    -0.241000000
H    -1.664000000     4.066000000    -0.374000000
C     0.105000000     4.367000000    -1.353000000
O    -0.584000000     4.102000000    -2.503000000
C    -0.425000000     2.793000000    -3.072000000
C    -1.687000000     2.334000000    -3.780000000
C    -1.601000000     1.595000000    -4.949000000
H    -0.686000000     1.446000000    -5.517000000
C    -2.884000000     2.497000000    -3.088000000
H    -2.869000000     3.106000000    -2.187000000
O     0.621000000     2.860000000    -4.118000000
H    -0.221000000     2.016000000    -2.320000000
C     1.489000000     4.504000000    -1.265000000
C     2.383000000     4.422000000    -2.531000000
H     3.269000000     5.055000000    -2.442000000
H     1.840000000     4.883000000    -3.359000000
C     2.631000000     3.009000000    -2.916000000
C     3.709000000     2.389000000    -2.303000000
H     4.268000000     2.874000000    -1.506000000
C     1.766000000     2.314000000    -3.748000000
C     1.930000000     0.987000000    -4.072000000
H     1.076000000     0.468000000    -4.500000000
C     3.106000000     0.398000000    -3.558000000
O     3.255000000    -1.006000000    -3.845000000
C     2.788000000    -1.908000000    -2.787000000
C     1.885000000    -3.027000000    -3.210000000
C     1.481000000    -2.998000000    -4.524000000
H     1.920000000    -2.237000000    -5.164000000
C     1.396000000    -3.917000000    -2.271000000
H     1.700000000    -3.883000000    -1.228000000
O     3.819000000    -2.375000000    -1.971000000
H     2.129000000    -1.226000000    -2.230000000
C     3.872000000     1.021000000    -2.586000000
C     5.003000000     0.275000000    -1.918000000
H     5.914000000     0.818000000    -1.660000000
H     5.372000000    -0.562000000    -2.515000000
C     4.607000000    -0.460000000    -0.645000000
C     4.160000000    -1.807000000    -0.719000000
C     3.693000000    -2.406000000     0.537000000
H     3.108000000    -3.322000000     0.545000000
C     3.907000000    -1.698000000     1.717000000
O     3.321000000    -2.237000000     2.818000000
C     2.073000000    -1.704000000     3.349000000
H     1.514000000    -1.199000000     2.548000000
C     1.238000000    -2.887000000     3.851000000
C     0.295000000    -2.574000000     4.845000000
H     0.325000000    -1.604000000     5.334000000
C     1.191000000    -4.151000000     3.259000000
H     1.869000000    -4.321000000     2.426000000
C     0.250000000    -5.095000000     3.701000000
O     0.071000000    -6.277000000     3.115000000
C    -0.702000000    -4.755000000     4.649000000
H    -1.400000000    -5.465000000     5.087000000
C    -0.647000000    -3.538000000     5.262000000
O    -1.418000000    -3.350000000     6.397000000
C    -1.993000000    -2.152000000     6.731000000
C    -3.098000000    -1.608000000     6.052000000
H    -3.492000000    -2.141000000     5.190000000
C    -1.373000000    -1.349000000     7.689000000
H    -0.437000000    -1.643000000     8.158000000
C    -1.757000000    -0.047000000     8.013000000
H    -1.203000000     0.508000000     8.766000000
C    -2.856000000     0.442000000     7.353000000
H    -3.236000000     1.436000000     7.577000000
C    -3.437000000    -0.325000000     6.360000000
O    -4.379000000     0.327000000     5.525000000
C    -4.007000000     1.179000000     4.495000000
C    -5.054000000     1.710000000     3.674000000
H    -6.068000000     1.335000000     3.788000000
C    -4.780000000     2.555000000     2.588000000
O    -5.839000000     2.901000000     1.754000000
C    -5.814000000     3.319000000     0.426000000
C    -5.363000000     2.517000000    -0.609000000
H    -4.890000000     1.572000000    -0.351000000
C    -6.182000000     4.626000000     0.145000000
H    -6.353000000     5.334000000     0.952000000
C    -6.302000000     5.045000000    -1.190000000
H    -6.533000000     6.071000000    -1.464000000
C    -6.013000000     4.209000000    -2.240000000
H    -6.246000000     4.512000000    -3.257000000
C    -5.441000000     2.975000000    -1.926000000
O    -5.244000000     2.106000000    -2.963000000
C    -4.063000000     2.025000000    -3.611000000
C    -4.007000000     1.348000000    -4.877000000
H    -4.908000000     0.937000000    -5.326000000
C    -2.796000000     1.112000000    -5.504000000
O    -2.840000000     0.295000000    -6.591000000
C    -1.767000000    -0.584000000    -6.952000000
C    -1.468000000    -1.749000000    -6.231000000
H    -1.954000000    -1.846000000    -5.264000000
C    -1.270000000    -0.414000000    -8.237000000
H    -1.653000000     0.410000000    -8.833000000
C    -0.294000000    -1.264000000    -8.724000000
H     0.032000000    -1.031000000    -9.735000000
C     0.064000000    -2.364000000    -8.045000000
H     0.721000000    -3.114000000    -8.476000000
C    -0.539000000    -2.643000000    -6.786000000
O    -0.193000000    -3.804000000    -6.137000000
C     0.423000000    -3.807000000    -4.887000000
C    -0.067000000    -4.789000000    -3.999000000
H    -0.904000000    -5.396000000    -4.335000000
C     0.347000000    -4.793000000    -2.624000000
O    -0.159000000    -5.639000000    -1.684000000
C     0.481000000    -6.189000000    -0.540000000
C     1.764000000    -6.777000000    -0.617000000
H     2.196000000    -6.887000000    -1.608000000
C     2.405000000    -7.220000000     0.511000000
H     3.409000000    -7.629000000     0.420000000
C     1.801000000    -7.106000000     1.734000000
H     2.402000000    -7.379000000     2.598000000
C     0.489000000    -6.585000000     1.795000000
C    -0.217000000    -6.096000000     0.660000000
H    -1.115000000    -5.503000000     0.817000000
O    -3.520000000    -5.727000000    -2.510000000
H    -4.285000000    -6.207000000    -2.193000000
H    -3.680000000    -4.821000000    -2.245000000
O    -8.494000000    -0.724000000     0.876000000
H    -7.709000000    -1.100000000     0.478000000
H    -8.924000000    -0.255000000     0.160000000
O    -6.502000000    -1.007000000    -2.894000000
H    -6.145000000    -0.246000000    -2.436000000
H    -6.847000000    -1.565000000    -2.197000000
O    -0.990000000    -8.405000000    -2.261000000
H    -1.237000000    -7.579000000    -1.845000000
H    -0.233000000    -8.184000000    -2.803000000
O    -3.582000000    -7.137000000    -4.683000000
H    -3.456000000    -6.454000000    -5.341000000
H    -3.246000000    -6.753000000    -3.872000000
O    -7.011000000    -2.283000000    -0.605000000
H    -6.181000000    -2.475000000    -0.168000000
H    -7.539000000    -3.071000000    -0.473000000
O    -8.604000000    -4.934000000    -0.501000000
H    -9.509000000    -4.977000000    -0.809000000
H    -8.076000000    -5.072000000    -1.288000000
O    -8.120000000    -3.603000000     3.585000000
H    -8.909000000    -3.758000000     3.065000000
H    -7.777000000    -2.771000000     3.259000000
O    -3.584000000    -4.228000000     2.111000000
H    -4.211000000    -4.256000000     1.387000000
H    -2.854000000    -3.708000000     1.776000000
O    -5.534000000    -6.763000000     1.076000000
H    -6.320000000    -6.712000000     1.621000000
H    -5.774000000    -6.313000000     0.266000000
O    -5.312000000    -1.971000000     2.833000000
H    -5.163000000    -2.033000000     1.890000000
H    -4.910000000    -2.763000000     3.191000000
O    -7.756000000    -0.632000000     3.357000000
H    -6.814000000    -0.798000000     3.330000000
H    -8.049000000    -0.769000000     2.456000000
O    -7.496000000    -5.026000000    -2.971000000
H    -7.867000000    -5.640000000    -3.605000000
H    -7.558000000    -4.172000000    -3.399000000
O    -8.369000000     1.081000000    -3.816000000
H    -8.844000000     0.520000000    -4.430000000
H    -7.470000000     0.754000000    -3.840000000
O    -6.625000000    -1.751000000    -6.075000000
H    -7.273000000    -2.320000000    -5.660000000
H    -5.830000000    -1.875000000    -5.556000000
O    -3.091000000    -7.002000000     2.456000000
H    -3.773000000    -7.236000000     1.826000000
H    -3.359000000    -6.146000000     2.790000000
O    -5.701000000    -5.188000000    -1.050000000
H    -5.189000000    -4.400000000    -1.232000000
H    -6.374000000    -5.199000000    -1.731000000
O    -4.771000000    -2.564000000    -4.082000000
H    -4.388000000    -2.929000000    -3.285000000
H    -5.394000000    -1.908000000    -3.770000000
O    -3.875000000    -3.785000000    -6.442000000
H    -4.036000000    -3.121000000    -5.772000000
H    -4.720000000    -4.220000000    -6.556000000
