201
-1231.88014
C    -3.075000000     2.889000000     2.764000000
H    -3.045000000     3.926000000     2.440000000
C    -2.107000000     2.018000000     3.341000000
C    -2.316000000     0.682000000     3.770000000
H    -1.521000000     0.106000000     4.238000000
C    -0.618000000     2.507000000     3.256000000
O    -0.490000000     3.886000000     3.168000000
H    -0.090000000     2.104000000     2.380000000
O     0.204000000     2.013000000     4.393000000
C     1.455000000     1.475000000     4.056000000
C     1.604000000     0.111000000     4.270000000
H     0.818000000    -0.554000000     4.621000000
C     2.802000000    -0.477000000     3.801000000
O     2.786000000    -1.939000000     3.873000000
C     3.767000000     0.259000000     3.212000000
C     4.943000000    -0.444000000     2.608000000
H     5.601000000     0.421000000     2.715000000
C     4.778000000    -0.999000000     1.196000000
C     5.015000000    -0.156000000     0.134000000
H     5.323000000     0.850000000     0.408000000
H     5.431000000    -1.143000000     3.290000000
C     3.670000000     1.678000000     3.262000000
H     4.559000000     2.174000000     2.883000000
C     2.489000000     2.325000000     3.611000000
C     2.336000000     3.866000000     3.450000000
H     3.333000000     4.307000000     3.517000000
H     1.824000000     4.097000000     4.386000000
C     1.654000000     4.352000000     2.175000000
C     2.331000000     4.357000000     1.007000000
H     3.414000000     4.290000000     1.068000000
C     0.234000000     4.439000000     2.129000000
C    -0.405000000     4.488000000     0.926000000
H    -1.490000000     4.427000000     0.881000000
C     0.318000000     4.595000000    -0.272000000
O    -0.398000000     4.712000000    -1.469000000
C    -0.555000000     3.458000000    -2.128000000
C    -2.005000000     3.184000000    -2.554000000
C    -2.256000000     2.198000000    -3.420000000
H    -1.470000000     1.511000000    -3.722000000
C    -3.025000000     3.973000000    -2.111000000
H    -2.824000000     4.778000000    -1.409000000
O     0.409000000     3.312000000    -3.138000000
H    -0.415000000     2.659000000    -1.384000000
C     1.692000000     4.501000000    -0.195000000
C     2.518000000     4.547000000    -1.430000000
H     3.566000000     4.849000000    -1.373000000
H     2.049000000     5.239000000    -2.132000000
C     2.662000000     3.185000000    -2.092000000
C     3.858000000     2.406000000    -2.014000000
H     4.609000000     2.676000000    -1.275000000
C     1.658000000     2.712000000    -2.933000000
C     1.830000000     1.551000000    -3.634000000
H     1.079000000     1.144000000    -4.307000000
C     2.975000000     0.793000000    -3.457000000
O     3.038000000    -0.437000000    -4.072000000
C     2.640000000    -1.494000000    -3.173000000
C     1.621000000    -2.430000000    -3.815000000
C     0.859000000    -2.059000000    -4.929000000
H     0.981000000    -1.016000000    -5.211000000
C     1.252000000    -3.631000000    -3.177000000
H     1.826000000    -4.000000000    -2.331000000
O     3.822000000    -2.229000000    -2.679000000
H     2.208000000    -1.044000000    -2.267000000
C     4.034000000     1.212000000    -2.645000000
C     5.142000000     0.325000000    -2.272000000
H     6.010000000     0.935000000    -2.014000000
H     5.380000000    -0.236000000    -3.178000000
C     4.901000000    -0.624000000    -1.163000000
C     4.302000000    -1.861000000    -1.431000000
C     4.113000000    -2.704000000    -0.298000000
H     3.591000000    -3.639000000    -0.482000000
C     4.312000000    -2.299000000     1.025000000
O     3.816000000    -3.103000000     2.043000000
C     2.586000000    -2.658000000     2.679000000
H     2.253000000    -1.911000000     1.943000000
C     1.602000000    -3.804000000     2.878000000
C     0.626000000    -3.774000000     3.872000000
H     0.546000000    -2.934000000     4.557000000
C     1.601000000    -4.891000000     2.083000000
H     2.408000000    -5.024000000     1.366000000
C     0.716000000    -5.940000000     2.183000000
O     0.803000000    -7.106000000     1.388000000
C    -0.220000000    -5.886000000     3.210000000
H    -0.906000000    -6.707000000     3.401000000
C    -0.305000000    -4.760000000     4.013000000
O    -1.236000000    -4.864000000     5.041000000
C    -1.966000000    -3.772000000     5.438000000
C    -2.780000000    -3.063000000     4.611000000
H    -2.825000000    -3.254000000     3.542000000
C    -1.853000000    -3.394000000     6.805000000
H    -1.289000000    -3.989000000     7.518000000
C    -2.491000000    -2.223000000     7.244000000
H    -2.448000000    -2.016000000     8.310000000
C    -3.156000000    -1.387000000     6.333000000
H    -3.495000000    -0.405000000     6.653000000
C    -3.307000000    -1.824000000     4.997000000
O    -3.973000000    -1.031000000     4.142000000
C    -3.658000000     0.265000000     3.747000000
C    -4.616000000     1.082000000     3.244000000
H    -5.658000000     0.789000000     3.156000000
C    -4.401000000     2.409000000     2.843000000
O    -5.517000000     3.173000000     2.540000000
C    -5.625000000     4.193000000     1.575000000
C    -5.267000000     3.927000000     0.277000000
H    -4.799000000     2.969000000     0.067000000
C    -6.428000000     5.338000000     1.809000000
H    -6.796000000     5.356000000     2.832000000
C    -6.669000000     6.240000000     0.799000000
H    -7.263000000     7.108000000     1.075000000
C    -6.277000000     6.041000000    -0.520000000
H    -6.468000000     6.840000000    -1.232000000
C    -5.575000000     4.856000000    -0.779000000
O    -5.301000000     4.540000000    -2.061000000
C    -4.303000000     3.735000000    -2.508000000
C    -4.563000000     2.683000000    -3.370000000
H    -5.572000000     2.391000000    -3.650000000
C    -3.550000000     1.961000000    -3.886000000
O    -3.774000000     0.918000000    -4.745000000
C    -2.880000000     0.588000000    -5.725000000
C    -2.375000000    -0.729000000    -5.743000000
H    -2.880000000    -1.400000000    -5.053000000
C    -2.295000000     1.579000000    -6.468000000
H    -2.702000000     2.587000000    -6.487000000
C    -1.233000000     1.244000000    -7.400000000
H    -0.786000000     1.949000000    -8.095000000
C    -0.806000000    -0.079000000    -7.441000000
H    -0.049000000    -0.395000000    -8.154000000
C    -1.311000000    -1.035000000    -6.579000000
O    -0.808000000    -2.351000000    -6.597000000
C    -0.208000000    -2.809000000    -5.430000000
C    -0.540000000    -3.987000000    -4.844000000
H    -1.396000000    -4.578000000    -5.159000000
C     0.192000000    -4.404000000    -3.704000000
O    -0.177000000    -5.545000000    -3.007000000
C     0.627000000    -6.211000000    -2.136000000
C     1.739000000    -6.860000000    -2.706000000
H     2.093000000    -6.700000000    -3.721000000
C     2.499000000    -7.647000000    -1.838000000
H     3.432000000    -8.112000000    -2.147000000
C     2.236000000    -7.665000000    -0.500000000
H     2.760000000    -8.420000000     0.080000000
C     1.078000000    -7.063000000     0.026000000
C     0.266000000    -6.294000000    -0.807000000
H    -0.644000000    -5.802000000    -0.474000000
O    -0.546000000    -9.370000000    -1.987000000
H    -0.736000000   -10.117000000    -1.419000000
H     0.146000000    -8.892000000    -1.530000000
O    -7.830000000    -2.473000000    -2.332000000
H    -8.100000000    -2.841000000    -3.174000000
H    -7.062000000    -2.987000000    -2.082000000
O    -6.838000000    -0.147000000    -3.549000000
H    -5.894000000    -0.255000000    -3.432000000
H    -7.200000000    -1.017000000    -3.383000000
O    -3.639000000    -5.374000000    -4.144000000
H    -3.654000000    -4.573000000    -3.621000000
H    -3.535000000    -6.077000000    -3.503000000
O    -5.931000000    -4.318000000    -1.487000000
H    -5.024000000    -4.032000000    -1.385000000
H    -6.137000000    -4.761000000    -0.664000000
O    -4.563000000    -1.084000000    -2.652000000
H    -4.020000000    -0.667000000    -1.982000000
H    -4.212000000    -1.971000000    -2.727000000
O    -4.935000000    -2.845000000     1.818000000
H    -4.832000000    -3.781000000     1.647000000
H    -5.265000000    -2.801000000     2.716000000
O    -6.729000000     0.367000000     0.367000000
H    -5.823000000     0.096000000     0.223000000
H    -7.224000000    -0.452000000     0.382000000
O    -4.152000000    -0.694000000     0.353000000
H    -3.367000000    -0.411000000     0.824000000
H    -4.385000000    -1.530000000     0.757000000
O    -6.367000000    -5.733000000     0.793000000
H    -6.168000000    -6.666000000     0.860000000
H    -7.278000000    -5.661000000     1.080000000
O    -5.950000000    -7.756000000    -2.846000000
H    -5.666000000    -7.812000000    -3.759000000
H    -5.217000000    -7.340000000    -2.392000000
O    -5.570000000    -2.962000000    -6.295000000
H    -5.264000000    -3.866000000    -6.218000000
H    -6.240000000    -2.877000000    -5.617000000
O     0.033000000    -7.154000000    -5.480000000
H     0.056000000    -6.388000000    -4.908000000
H    -0.767000000    -7.045000000    -5.994000000
O    -7.280000000    -2.278000000     0.605000000
H    -7.266000000    -2.522000000    -0.320000000
H    -6.383000000    -2.426000000     0.906000000
O    -3.729000000    -5.700000000     1.785000000
H    -4.629000000    -5.791000000     2.098000000
H    -3.807000000    -5.200000000     0.972000000
O    -4.862000000    -7.617000000    -5.217000000
H    -4.531000000    -6.735000000    -5.050000000
H    -5.224000000    -7.573000000    -6.102000000
O    -3.551000000    -6.701000000    -1.804000000
H    -3.498000000    -5.791000000    -1.511000000
H    -2.965000000    -7.177000000    -1.216000000
O    -3.490000000    -8.140000000     3.019000000
H    -2.723000000    -8.684000000     2.838000000
H    -3.259000000    -7.278000000     2.674000000
O    -7.659000000    -5.403000000    -3.464000000
H    -7.614000000    -6.332000000    -3.690000000
H    -6.894000000    -5.255000000    -2.908000000
