201
-1222.81686
C    -3.864000000    -3.393000000     0.931000000
H    -4.110000000    -3.337000000    -0.126000000
C    -3.863000000    -2.211000000     1.619000000
C    -3.581000000    -2.307000000     2.959000000
H    -3.512000000    -1.325000000     3.419000000
C    -3.949000000    -0.859000000     0.850000000
O    -4.533000000    -0.948000000    -0.499000000
H    -2.937000000    -0.477000000     0.653000000
O    -4.613000000     0.125000000     1.631000000
C    -4.121000000     1.383000000     1.592000000
C    -3.341000000     1.776000000     2.566000000
H    -3.169000000     1.313000000     3.534000000
C    -2.575000000     2.965000000     2.536000000
O    -1.698000000     3.220000000     3.463000000
C    -2.707000000     3.859000000     1.515000000
C    -1.853000000     5.094000000     1.332000000
H    -2.352000000     5.869000000     0.746000000
C    -0.472000000     4.786000000     0.750000000
C    -0.212000000     4.980000000    -0.581000000
H    -1.000000000     5.377000000    -1.216000000
H    -1.772000000     5.527000000     2.331000000
C    -3.572000000     3.482000000     0.503000000
H    -3.601000000     4.150000000    -0.353000000
C    -4.336000000     2.253000000     0.519000000
C    -5.132000000     1.826000000    -0.717000000
H    -5.670000000     2.657000000    -1.178000000
H    -5.899000000     1.120000000    -0.395000000
C    -4.278000000     1.133000000    -1.726000000
C    -3.654000000     1.848000000    -2.808000000
H    -3.755000000     2.920000000    -2.953000000
C    -4.007000000    -0.231000000    -1.583000000
C    -3.282000000    -0.976000000    -2.508000000
H    -3.116000000    -2.050000000    -2.472000000
C    -2.786000000    -0.339000000    -3.600000000
O    -1.927000000    -1.016000000    -4.423000000
C    -0.465000000    -1.023000000    -4.177000000
C     0.081000000    -2.473000000    -4.022000000
C     1.372000000    -2.756000000    -4.344000000
H     2.048000000    -1.954000000    -4.630000000
C    -0.781000000    -3.534000000    -3.733000000
H    -1.795000000    -3.273000000    -3.440000000
O     0.253000000    -0.188000000    -5.081000000
H    -0.224000000    -0.639000000    -3.175000000
C    -2.895000000     1.089000000    -3.725000000
C    -2.030000000     1.755000000    -4.833000000
H    -2.453000000     2.735000000    -5.067000000
H    -2.061000000     1.190000000    -5.766000000
C    -0.619000000     1.999000000    -4.439000000
C    -0.321000000     3.250000000    -3.889000000
H    -1.043000000     4.023000000    -3.639000000
C     0.413000000     1.083000000    -4.722000000
C     1.725000000     1.351000000    -4.312000000
H     2.401000000     0.502000000    -4.246000000
C     1.985000000     2.546000000    -3.627000000
O     3.171000000     2.577000000    -2.950000000
C     3.224000000     2.402000000    -1.503000000
C     4.370000000     1.525000000    -1.125000000
C     4.629000000     0.316000000    -1.836000000
H     4.078000000     0.014000000    -2.723000000
C     5.149000000     1.826000000    -0.015000000
H     5.078000000     2.787000000     0.490000000
O     3.241000000     3.651000000    -0.884000000
H     2.284000000     1.891000000    -1.246000000
C     0.979000000     3.506000000    -3.449000000
C     1.249000000     4.801000000    -2.651000000
H     0.623000000     5.627000000    -2.999000000
H     2.287000000     5.130000000    -2.736000000
C     1.032000000     4.645000000    -1.164000000
C     2.023000000     4.127000000    -0.331000000
C     1.723000000     3.882000000     1.000000000
H     2.433000000     3.388000000     1.658000000
C     0.552000000     4.343000000     1.615000000
O     0.369000000     3.960000000     2.937000000
C    -0.372000000     2.765000000     3.205000000
H    -0.260000000     2.194000000     2.272000000
C     0.331000000     2.036000000     4.337000000
C    -0.425000000     1.528000000     5.442000000
H    -1.497000000     1.693000000     5.507000000
C     1.686000000     1.753000000     4.268000000
H     2.256000000     2.208000000     3.462000000
C     2.267000000     0.958000000     5.270000000
O     3.602000000     0.744000000     5.308000000
C     1.531000000     0.464000000     6.391000000
H     1.962000000    -0.263000000     7.074000000
C     0.167000000     0.710000000     6.363000000
O    -0.587000000     0.110000000     7.290000000
C    -1.761000000    -0.556000000     6.963000000
C    -1.709000000    -1.735000000     6.299000000
H    -0.700000000    -2.047000000     6.041000000
C    -2.956000000     0.066000000     7.171000000
H    -2.933000000     0.988000000     7.746000000
C    -4.134000000    -0.512000000     6.786000000
H    -5.096000000    -0.017000000     6.892000000
C    -4.074000000    -1.807000000     6.202000000
H    -5.015000000    -2.308000000     5.988000000
C    -2.869000000    -2.382000000     5.870000000
O    -2.757000000    -3.461000000     4.982000000
C    -3.155000000    -3.476000000     3.601000000
C    -3.006000000    -4.652000000     2.847000000
H    -2.731000000    -5.629000000     3.235000000
C    -3.440000000    -4.609000000     1.494000000
O    -3.429000000    -5.793000000     0.760000000
C    -3.509000000    -5.907000000    -0.642000000
C    -2.405000000    -5.848000000    -1.500000000
H    -1.408000000    -5.718000000    -1.087000000
C    -4.727000000    -6.189000000    -1.251000000
H    -5.627000000    -6.240000000    -0.644000000
C    -4.834000000    -6.204000000    -2.646000000
H    -5.835000000    -6.406000000    -3.021000000
C    -3.757000000    -6.143000000    -3.454000000
H    -3.838000000    -6.373000000    -4.513000000
C    -2.535000000    -5.865000000    -2.907000000
O    -1.357000000    -5.981000000    -3.660000000
C    -0.378000000    -4.937000000    -3.776000000
C     0.957000000    -5.167000000    -4.139000000
H     1.263000000    -6.199000000    -4.287000000
C     1.792000000    -4.099000000    -4.465000000
O     3.056000000    -4.385000000    -4.860000000
C     3.986000000    -3.452000000    -4.688000000
C     4.383000000    -3.033000000    -3.383000000
H     3.899000000    -3.437000000    -2.497000000
C     4.732000000    -3.036000000    -5.800000000
H     4.443000000    -3.450000000    -6.763000000
C     5.788000000    -2.108000000    -5.634000000
H     6.233000000    -1.604000000    -6.488000000
C     6.126000000    -1.653000000    -4.335000000
H     6.920000000    -0.920000000    -4.215000000
C     5.466000000    -2.176000000    -3.243000000
O     5.840000000    -1.783000000    -1.964000000
C     5.633000000    -0.545000000    -1.403000000
C     6.287000000    -0.262000000    -0.232000000
H     6.987000000    -0.987000000     0.176000000
C     6.080000000     0.925000000     0.467000000
O     6.737000000     1.148000000     1.652000000
C     6.097000000     1.635000000     2.747000000
C     6.262000000     2.979000000     3.111000000
H     6.868000000     3.672000000     2.534000000
C     5.470000000     3.606000000     4.082000000
H     5.669000000     4.654000000     4.293000000
C     4.671000000     2.770000000     4.853000000
H     4.082000000     3.203000000     5.657000000
C     4.521000000     1.470000000     4.569000000
C     5.130000000     0.937000000     3.450000000
H     5.055000000    -0.133000000     3.271000000
O     3.811000000    -4.850000000     4.751000000
H     3.338000000    -5.454000000     4.180000000
H     3.813000000    -4.020000000     4.272000000
O     5.153000000    -2.080000000     5.720000000
H     4.615000000    -1.932000000     4.942000000
H     4.573000000    -1.877000000     6.454000000
O     6.570000000    -7.245000000     3.559000000
H     7.420000000    -6.950000000     3.231000000
H     5.942000000    -6.626000000     3.186000000
O     4.093000000    -8.809000000     0.403000000
H     4.497000000    -9.363000000     1.070000000
H     3.374000000    -8.371000000     0.859000000
O    -0.793000000    -1.879000000     2.438000000
H    -0.429000000    -1.040000000     2.721000000
H    -0.566000000    -1.937000000     1.510000000
O     1.639000000    -7.295000000     1.385000000
H     1.803000000    -6.370000000     1.203000000
H     0.698000000    -7.403000000     1.245000000
O    -0.964000000    -7.388000000     4.037000000
H    -1.846000000    -7.649000000     3.773000000
H    -0.490000000    -7.276000000     3.213000000
O    -0.943000000    -7.309000000     1.272000000
H    -1.677000000    -6.815000000     0.905000000
H    -1.111000000    -8.215000000     1.013000000
O     3.422000000    -2.442000000     3.674000000
H     2.495000000    -2.621000000     3.832000000
H     3.549000000    -2.639000000     2.746000000
O     1.949000000    -6.875000000     4.003000000
H     1.074000000    -6.922000000     4.389000000
H     1.849000000    -7.267000000     3.135000000
O     2.077000000    -6.843000000    -1.352000000
H     2.003000000    -7.367000000    -0.554000000
H     2.469000000    -6.019000000    -1.062000000
O     8.242000000    -3.636000000    -1.455000000
H     7.600000000    -3.538000000    -0.751000000
H     8.602000000    -2.758000000    -1.574000000
O     0.898000000    -8.626000000    -2.856000000
H     1.277000000    -7.861000000    -2.423000000
H     1.503000000    -9.340000000    -2.653000000
O     4.648000000    -5.835000000     1.850000000
H     3.967000000    -6.418000000     1.516000000
H     4.265000000    -4.960000000     1.789000000
O     0.968000000    -3.473000000     3.928000000
H     0.506000000    -3.328000000     4.754000000
H     0.273000000    -3.633000000     3.290000000
O     6.203000000    -7.584000000    -1.168000000
H     6.978000000    -7.744000000    -0.630000000
H     5.473000000    -7.900000000    -0.636000000
O     8.624000000    -3.058000000     1.845000000
H     8.360000000    -2.901000000     2.752000000
H     7.808000000    -3.269000000     1.392000000
O     6.458000000    -3.880000000     0.440000000
H     5.513000000    -3.733000000     0.418000000
H     6.551000000    -4.812000000     0.637000000
O     6.851000000    -5.578000000    -2.828000000
H     7.224000000    -4.841000000    -2.343000000
H     6.518000000    -6.167000000    -2.150000000
