201
-1251.73589
C    -2.484000000     2.926000000     3.862000000
H    -2.413000000     3.922000000     3.431000000
C    -1.275000000     2.276000000     4.091000000
C    -1.312000000     1.039000000     4.768000000
H    -0.413000000     0.474000000     4.997000000
C     0.052000000     2.742000000     3.501000000
O     0.017000000     4.129000000     3.269000000
H     0.075000000     2.178000000     2.556000000
O     1.239000000     2.414000000     4.419000000
C     2.354000000     1.865000000     3.867000000
C     2.687000000     0.509000000     4.025000000
H     2.031000000    -0.027000000     4.707000000
C     3.595000000    -0.135000000     3.184000000
O     3.599000000    -1.507000000     3.187000000
C     4.468000000     0.722000000     2.409000000
C     5.483000000     0.100000000     1.517000000
H     6.274000000     0.850000000     1.447000000
C     4.952000000    -0.455000000     0.223000000
C     4.917000000     0.363000000    -0.905000000
H     5.314000000     1.374000000    -0.932000000
H     6.056000000    -0.688000000     2.009000000
C     4.193000000     2.055000000     2.358000000
H     4.815000000     2.637000000     1.683000000
C     3.122000000     2.687000000     3.017000000
C     2.790000000     4.129000000     2.624000000
H     3.755000000     4.506000000     2.280000000
H     2.610000000     4.718000000     3.526000000
C     1.755000000     4.384000000     1.561000000
C     2.075000000     4.507000000     0.196000000
H     3.110000000     4.344000000    -0.093000000
C     0.378000000     4.452000000     1.988000000
C    -0.586000000     4.576000000     0.985000000
H    -1.634000000     4.640000000     1.267000000
C    -0.240000000     4.680000000    -0.365000000
O    -1.265000000     4.502000000    -1.232000000
C    -1.403000000     3.265000000    -1.913000000
C    -2.882000000     2.829000000    -2.095000000
C    -3.252000000     1.767000000    -2.998000000
H    -2.482000000     1.343000000    -3.638000000
C    -3.857000000     3.369000000    -1.237000000
H    -3.571000000     4.236000000    -0.647000000
O    -0.825000000     3.226000000    -3.189000000
H    -0.893000000     2.426000000    -1.416000000
C     1.112000000     4.725000000    -0.750000000
C     1.471000000     4.847000000    -2.193000000
H     2.412000000     5.386000000    -2.316000000
H     0.710000000     5.385000000    -2.762000000
C     1.552000000     3.447000000    -2.810000000
C     2.768000000     2.811000000    -2.829000000
H     3.665000000     3.198000000    -2.351000000
C     0.451000000     2.774000000    -3.411000000
C     0.628000000     1.502000000    -4.027000000
H    -0.185000000     1.057000000    -4.595000000
C     1.878000000     0.913000000    -3.920000000
O     2.015000000    -0.376000000    -4.386000000
C     1.883000000    -1.485000000    -3.529000000
C     0.796000000    -2.448000000    -4.026000000
C    -0.184000000    -2.171000000    -4.959000000
H    -0.172000000    -1.163000000    -5.367000000
C     0.798000000    -3.733000000    -3.529000000
H     1.459000000    -3.980000000    -2.703000000
O     3.216000000    -1.958000000    -3.372000000
H     1.635000000    -1.059000000    -2.546000000
C     2.970000000     1.552000000    -3.361000000
C     4.277000000     0.852000000    -3.223000000
H     5.120000000     1.544000000    -3.276000000
H     4.358000000     0.356000000    -4.193000000
C     4.371000000    -0.092000000    -2.083000000
C     3.892000000    -1.457000000    -2.224000000
C     3.906000000    -2.234000000    -1.089000000
H     3.450000000    -3.209000000    -1.241000000
C     4.409000000    -1.736000000     0.101000000
O     4.286000000    -2.503000000     1.156000000
C     3.166000000    -2.213000000     1.985000000
H     2.494000000    -1.479000000     1.516000000
C     2.422000000    -3.475000000     2.366000000
C     1.474000000    -3.411000000     3.348000000
H     1.232000000    -2.475000000     3.845000000
C     2.483000000    -4.592000000     1.560000000
H     3.139000000    -4.650000000     0.695000000
C     1.694000000    -5.714000000     1.799000000
O     1.863000000    -6.929000000     1.109000000
C     0.809000000    -5.707000000     2.872000000
H     0.297000000    -6.645000000     3.069000000
C     0.633000000    -4.506000000     3.587000000
O    -0.296000000    -4.567000000     4.574000000
C    -0.447000000    -3.591000000     5.519000000
C    -1.358000000    -2.537000000     5.192000000
H    -1.853000000    -2.450000000     4.229000000
C     0.078000000    -3.672000000     6.856000000
H     0.649000000    -4.587000000     6.990000000
C    -0.192000000    -2.600000000     7.767000000
H     0.255000000    -2.577000000     8.758000000
C    -1.052000000    -1.606000000     7.371000000
H    -1.264000000    -0.811000000     8.081000000
C    -1.658000000    -1.591000000     6.143000000
O    -2.713000000    -0.704000000     5.829000000
C    -2.531000000     0.570000000     5.266000000
C    -3.720000000     1.250000000     4.941000000
H    -4.688000000     0.828000000     5.198000000
C    -3.717000000     2.453000000     4.278000000
O    -4.890000000     3.159000000     4.094000000
C    -5.168000000     3.938000000     2.991000000
C    -5.394000000     3.288000000     1.713000000
H    -5.239000000     2.214000000     1.643000000
C    -5.437000000     5.301000000     3.215000000
H    -5.286000000     5.712000000     4.209000000
C    -5.805000000     6.117000000     2.130000000
H    -5.943000000     7.189000000     2.245000000
C    -6.091000000     5.485000000     0.830000000
H    -6.351000000     6.109000000    -0.022000000
C    -5.884000000     4.058000000     0.707000000
O    -6.153000000     3.458000000    -0.589000000
C    -5.186000000     2.881000000    -1.357000000
C    -5.573000000     1.993000000    -2.341000000
H    -6.610000000     1.691000000    -2.465000000
C    -4.610000000     1.390000000    -3.136000000
O    -4.965000000     0.506000000    -4.090000000
C    -4.219000000     0.023000000    -5.174000000
C    -3.489000000    -1.178000000    -5.096000000
H    -3.730000000    -1.892000000    -4.312000000
C    -4.075000000     0.912000000    -6.265000000
H    -4.552000000     1.888000000    -6.255000000
C    -3.248000000     0.611000000    -7.275000000
H    -3.246000000     1.160000000    -8.213000000
C    -2.634000000    -0.649000000    -7.289000000
H    -2.161000000    -0.941000000    -8.223000000
C    -2.782000000    -1.523000000    -6.231000000
O    -2.089000000    -2.700000000    -6.313000000
C    -1.143000000    -3.078000000    -5.402000000
C    -1.102000000    -4.358000000    -4.868000000
H    -1.883000000    -5.072000000    -5.116000000
C    -0.155000000    -4.672000000    -3.877000000
O    -0.124000000    -5.930000000    -3.333000000
C     0.808000000    -6.511000000    -2.424000000
C     1.614000000    -7.463000000    -3.025000000
H     1.610000000    -7.595000000    -4.104000000
C     2.512000000    -8.207000000    -2.269000000
H     3.275000000    -8.816000000    -2.747000000
C     2.470000000    -8.023000000    -0.928000000
H     3.185000000    -8.598000000    -0.345000000
C     1.705000000    -7.116000000    -0.270000000
C     0.840000000    -6.282000000    -1.040000000
H     0.114000000    -5.580000000    -0.636000000
O    -2.146000000    -7.602000000    -0.925000000
H    -1.736000000    -7.949000000    -0.133000000
H    -2.232000000    -6.663000000    -0.759000000
O    -6.297000000    -5.523000000    -2.571000000
H    -5.719000000    -5.941000000    -3.210000000
H    -6.581000000    -4.715000000    -2.998000000
O    -2.983000000    -8.861000000     1.981000000
H    -3.744000000    -9.174000000     1.493000000
H    -2.785000000    -9.567000000     2.597000000
O    -3.527000000    -1.411000000     2.476000000
H    -3.338000000    -2.300000000     2.175000000
H    -3.962000000    -0.994000000     1.733000000
O     0.193000000   -10.304000000    -2.604000000
H     0.603000000   -10.662000000    -1.817000000
H     0.334000000    -9.360000000    -2.540000000
O    -5.295000000    -2.444000000    -1.776000000
H    -4.538000000    -2.968000000    -2.040000000
H    -5.708000000    -2.187000000    -2.600000000
O    -3.470000000    -8.094000000    -5.225000000
H    -2.609000000    -8.389000000    -4.928000000
H    -3.679000000    -7.355000000    -4.654000000
O    -6.408000000    -3.454000000    -4.391000000
H    -6.571000000    -4.216000000    -4.947000000
H    -6.463000000    -2.707000000    -4.986000000
O    -4.019000000    -0.588000000    -0.151000000
H    -4.161000000    -1.246000000    -0.831000000
H    -3.217000000    -0.138000000    -0.418000000
O    -7.660000000    -7.477000000    -0.912000000
H    -8.595000000    -7.287000000    -0.835000000
H    -7.260000000    -6.633000000    -1.121000000
O    -7.345000000    -3.436000000    -0.024000000
H    -6.755000000    -2.938000000    -0.591000000
H    -6.802000000    -4.142000000     0.326000000
O    -4.907000000    -2.413000000     4.864000000
H    -4.267000000    -1.896000000     4.375000000
H    -4.684000000    -3.322000000     4.663000000
O    -4.292000000    -4.813000000     3.682000000
H    -4.839000000    -5.595000000     3.600000000
H    -3.419000000    -5.103000000     3.418000000
O    -1.349000000    -7.634000000     4.734000000
H    -1.589000000    -6.947000000     4.113000000
H    -1.345000000    -8.437000000     4.213000000
O    -3.437000000    -6.316000000    -3.048000000
H    -3.422000000    -5.385000000    -2.823000000
H    -2.756000000    -6.706000000    -2.500000000
O    -5.443000000    -6.974000000     2.142000000
H    -5.211000000    -6.343000000     1.460000000
H    -6.361000000    -7.184000000     1.971000000
O    -5.178000000    -5.235000000     0.159000000
H    -5.498000000    -5.274000000    -0.742000000
H    -4.239000000    -5.071000000     0.073000000
O    -2.442000000    -6.119000000     2.389000000
H    -2.461000000    -5.661000000     1.548000000
H    -2.592000000    -7.037000000     2.164000000
O    -3.767000000    -9.656000000    -2.301000000
H    -3.290000000    -8.970000000    -1.835000000
H    -4.567000000    -9.227000000    -2.604000000
