201
-1246.56216
C    -3.426000000    -3.601000000     0.442000000
H    -3.716000000    -3.518000000    -0.602000000
C    -3.543000000    -2.412000000     1.074000000
C    -3.099000000    -2.318000000     2.400000000
H    -3.259000000    -1.346000000     2.860000000
C    -3.978000000    -1.089000000     0.392000000
O    -4.823000000    -1.267000000    -0.778000000
H    -3.077000000    -0.557000000     0.054000000
O    -4.699000000    -0.157000000     1.278000000
C    -4.277000000     1.157000000     1.208000000
C    -3.480000000     1.608000000     2.197000000
H    -3.409000000     1.019000000     3.108000000
C    -2.817000000     2.851000000     2.140000000
O    -2.058000000     3.073000000     3.240000000
C    -3.103000000     3.726000000     1.116000000
C    -2.336000000     5.028000000     0.977000000
H    -2.783000000     5.742000000     0.282000000
C    -0.933000000     4.727000000     0.440000000
C    -0.625000000     4.682000000    -0.892000000
H    -1.417000000     4.976000000    -1.575000000
H    -2.155000000     5.568000000     1.908000000
C    -4.065000000     3.332000000     0.164000000
H    -4.302000000     4.087000000    -0.581000000
C    -4.555000000     2.053000000     0.145000000
C    -5.311000000     1.601000000    -1.181000000
H    -5.696000000     2.497000000    -1.672000000
H    -6.157000000     1.018000000    -0.812000000
C    -4.474000000     0.737000000    -2.076000000
C    -3.790000000     1.271000000    -3.191000000
H    -3.811000000     2.355000000    -3.265000000
C    -4.274000000    -0.650000000    -1.881000000
C    -3.387000000    -1.376000000    -2.665000000
H    -3.161000000    -2.428000000    -2.513000000
C    -2.775000000    -0.840000000    -3.768000000
O    -1.920000000    -1.545000000    -4.527000000
C    -0.555000000    -1.450000000    -4.115000000
C     0.153000000    -2.803000000    -4.063000000
C     1.541000000    -2.817000000    -3.898000000
H     2.079000000    -1.875000000    -3.958000000
C    -0.576000000    -3.998000000    -4.064000000
H    -1.652000000    -4.105000000    -3.955000000
O     0.092000000    -0.528000000    -5.058000000
H    -0.498000000    -1.032000000    -3.099000000
C    -2.914000000     0.567000000    -4.048000000
C    -2.159000000     1.277000000    -5.163000000
H    -2.760000000     2.141000000    -5.455000000
H    -2.026000000     0.645000000    -6.044000000
C    -0.746000000     1.659000000    -4.707000000
C    -0.509000000     2.898000000    -4.141000000
H    -1.392000000     3.522000000    -4.022000000
C     0.276000000     0.748000000    -4.654000000
C     1.501000000     1.016000000    -4.052000000
H     2.148000000     0.151000000    -3.938000000
C     1.716000000     2.232000000    -3.553000000
O     2.898000000     2.402000000    -2.816000000
C     2.955000000     2.555000000    -1.356000000
C     4.140000000     1.817000000    -0.682000000
C     4.777000000     0.795000000    -1.427000000
H     4.463000000     0.615000000    -2.452000000
C     4.592000000     2.104000000     0.632000000
H     4.120000000     2.888000000     1.218000000
O     2.917000000     3.978000000    -1.013000000
H     2.049000000     2.072000000    -0.962000000
C     0.756000000     3.269000000    -3.624000000
C     0.849000000     4.586000000    -2.976000000
H     0.150000000     5.287000000    -3.437000000
H     1.847000000     4.967000000    -3.202000000
C     0.604000000     4.517000000    -1.439000000
C     1.634000000     4.293000000    -0.552000000
C     1.419000000     4.275000000     0.829000000
H     2.217000000     4.089000000     1.544000000
C     0.144000000     4.414000000     1.317000000
O    -0.015000000     4.190000000     2.661000000
C    -0.568000000     2.915000000     3.107000000
H    -0.435000000     2.117000000     2.361000000
C    -0.018000000     2.397000000     4.433000000
C    -0.827000000     1.679000000     5.319000000
H    -1.880000000     1.479000000     5.135000000
C     1.371000000     2.506000000     4.705000000
H     1.981000000     3.005000000     3.957000000
C     1.897000000     1.755000000     5.829000000
O     3.285000000     1.923000000     6.155000000
C     1.048000000     1.012000000     6.642000000
H     1.472000000     0.375000000     7.414000000
C    -0.293000000     0.996000000     6.407000000
O    -1.028000000     0.226000000     7.235000000
C    -1.927000000    -0.665000000     6.650000000
C    -1.476000000    -1.462000000     5.623000000
H    -0.422000000    -1.439000000     5.360000000
C    -3.199000000    -0.690000000     7.095000000
H    -3.531000000     0.120000000     7.740000000
C    -4.050000000    -1.642000000     6.520000000
H    -5.093000000    -1.573000000     6.820000000
C    -3.661000000    -2.551000000     5.522000000
H    -4.363000000    -3.258000000     5.086000000
C    -2.325000000    -2.429000000     5.094000000
O    -1.799000000    -3.278000000     4.173000000
C    -2.508000000    -3.412000000     3.017000000
C    -2.505000000    -4.661000000     2.440000000
H    -2.016000000    -5.511000000     2.906000000
C    -2.892000000    -4.724000000     1.103000000
O    -2.663000000    -5.920000000     0.453000000
C    -2.883000000    -6.159000000    -0.877000000
C    -1.731000000    -6.089000000    -1.630000000
H    -0.775000000    -5.724000000    -1.264000000
C    -4.080000000    -6.552000000    -1.412000000
H    -4.994000000    -6.597000000    -0.825000000
C    -4.124000000    -7.037000000    -2.724000000
H    -5.073000000    -7.264000000    -3.205000000
C    -2.941000000    -6.984000000    -3.527000000
H    -2.932000000    -7.308000000    -4.565000000
C    -1.750000000    -6.455000000    -2.943000000
O    -0.624000000    -6.398000000    -3.678000000
C     0.129000000    -5.206000000    -3.965000000
C     1.496000000    -5.211000000    -3.777000000
H     1.994000000    -6.151000000    -3.553000000
C     2.230000000    -4.030000000    -3.763000000
O     3.641000000    -4.121000000    -3.584000000
C     4.443000000    -3.037000000    -3.661000000
C     4.988000000    -2.502000000    -2.503000000
H     4.789000000    -2.810000000    -1.480000000
C     4.816000000    -2.600000000    -4.926000000
H     4.309000000    -3.097000000    -5.749000000
C     5.652000000    -1.555000000    -5.129000000
H     5.902000000    -1.218000000    -6.132000000
C     6.302000000    -1.010000000    -4.010000000
H     7.120000000    -0.299000000    -4.086000000
C     5.996000000    -1.523000000    -2.696000000
O     6.537000000    -0.901000000    -1.627000000
C     5.806000000     0.033000000    -0.902000000
C     6.276000000     0.417000000     0.386000000
H     7.158000000    -0.049000000     0.819000000
C     5.662000000     1.445000000     1.064000000
O     6.237000000     1.828000000     2.244000000
C     5.624000000     2.466000000     3.345000000
C     6.230000000     3.655000000     3.739000000
H     7.026000000     4.089000000     3.140000000
C     5.802000000     4.352000000     4.854000000
H     6.183000000     5.339000000     5.104000000
C     4.749000000     3.819000000     5.652000000
H     4.397000000     4.423000000     6.483000000
C     4.247000000     2.544000000     5.367000000
C     4.690000000     1.899000000     4.184000000
H     4.289000000     0.947000000     3.846000000
O     8.324000000    -7.260000000     0.555000000
H     7.535000000    -6.983000000     0.089000000
H     8.386000000    -8.200000000     0.383000000
O     1.801000000   -10.257000000     0.138000000
H     1.649000000   -10.424000000     1.068000000
H     1.346000000    -9.433000000    -0.036000000
O     7.198000000    -1.876000000     4.201000000
H     6.287000000    -2.075000000     3.988000000
H     7.209000000    -0.929000000     4.346000000
O     4.307000000    -4.394000000     6.928000000
H     3.628000000    -4.801000000     6.391000000
H     5.126000000    -4.609000000     6.482000000
O     7.026000000    -5.611000000     5.206000000
H     7.617000000    -5.984000000     4.551000000
H     6.150000000    -5.810000000     4.877000000
O     5.811000000    -9.204000000     0.452000000
H     5.741000000    -9.853000000     1.152000000
H     6.744000000    -8.995000000     0.412000000
O     0.454000000    -2.357000000     2.915000000
H     0.327000000    -1.996000000     2.038000000
H    -0.420000000    -2.632000000     3.190000000
O     1.345000000    -6.725000000     2.868000000
H     1.890000000    -6.647000000     2.085000000
H     0.607000000    -7.269000000     2.592000000
O     4.589000000    -2.630000000     3.687000000
H     3.765000000    -2.649000000     4.174000000
H     4.523000000    -3.364000000     3.076000000
O     2.544000000    -5.922000000     5.195000000
H     2.172000000    -6.303000000     5.990000000
H     2.075000000    -6.353000000     4.480000000
O     5.249000000    -8.723000000     4.351000000
H     5.695000000    -8.524000000     5.174000000
H     4.889000000    -7.883000000     4.065000000
O     1.366000000    -7.451000000    -0.287000000
H     0.641000000    -7.284000000     0.316000000
H     1.849000000    -6.626000000    -0.315000000
O     8.008000000    -4.298000000    -1.759000000
H     7.258000000    -3.993000000    -1.249000000
H     8.756000000    -3.829000000    -1.389000000
O     4.810000000    -5.904000000     3.727000000
H     3.984000000    -5.828000000     4.204000000
H     4.660000000    -5.428000000     2.911000000
O     1.729000000    -3.327000000     5.019000000
H     1.936000000    -4.155000000     4.586000000
H     1.249000000    -2.825000000     4.360000000
O     5.182000000    -6.572000000    -0.638000000
H     5.020000000    -7.507000000    -0.517000000
H     4.346000000    -6.154000000    -0.431000000
O     8.273000000    -2.551000000     1.772000000
H     7.845000000    -2.214000000     2.559000000
H     7.768000000    -3.330000000     1.540000000
O     6.497000000    -4.507000000     0.549000000
H     5.691000000    -4.215000000     0.976000000
H     6.364000000    -5.444000000     0.403000000
O     7.010000000    -6.248000000    -3.331000000
H     7.554000000    -5.613000000    -2.864000000
H     6.345000000    -6.508000000    -2.694000000
