201
-1239.89663
C    -3.089000000     3.793000000     2.663000000
H    -3.213000000     3.976000000     1.598000000
C    -1.742000000     3.748000000     3.068000000
C    -1.434000000     3.253000000     4.295000000
H    -0.438000000     3.170000000     4.723000000
C    -0.570000000     3.850000000     2.075000000
O    -0.865000000     4.797000000     1.056000000
H    -0.672000000     2.849000000     1.632000000
O     0.633000000     4.157000000     2.767000000
C     1.725000000     3.472000000     2.322000000
C     2.077000000     2.325000000     2.906000000
H     1.489000000     1.950000000     3.740000000
C     3.138000000     1.617000000     2.421000000
O     3.423000000     0.465000000     3.151000000
C     3.976000000     2.122000000     1.410000000
C     5.222000000     1.365000000     1.003000000
H     5.896000000     2.096000000     0.551000000
C     4.960000000     0.300000000     0.034000000
C     4.959000000     0.537000000    -1.330000000
H     5.342000000     1.488000000    -1.691000000
H     5.685000000     1.025000000     1.932000000
C     3.558000000     3.291000000     0.805000000
H     4.164000000     3.750000000     0.028000000
C     2.424000000     3.996000000     1.217000000
C     2.037000000     5.214000000     0.381000000
H     2.906000000     5.612000000    -0.146000000
H     1.751000000     5.998000000     1.085000000
C     0.882000000     4.812000000    -0.651000000
C     1.217000000     4.511000000    -1.931000000
H     2.232000000     4.657000000    -2.293000000
C    -0.452000000     4.560000000    -0.218000000
C    -1.418000000     3.928000000    -1.030000000
H    -2.439000000     3.757000000    -0.697000000
C    -1.008000000     3.583000000    -2.283000000
O    -1.969000000     2.998000000    -3.099000000
C    -1.876000000     1.605000000    -3.148000000
C    -3.279000000     0.988000000    -3.066000000
C    -3.580000000    -0.210000000    -3.749000000
H    -2.958000000    -0.680000000    -4.506000000
C    -4.176000000     1.430000000    -2.121000000
H    -3.834000000     2.305000000    -1.574000000
O    -1.150000000     1.169000000    -4.352000000
H    -1.372000000     1.149000000    -2.283000000
C     0.307000000     3.845000000    -2.722000000
C     0.721000000     3.391000000    -4.126000000
H     1.486000000     4.047000000    -4.546000000
H    -0.165000000     3.483000000    -4.757000000
C     1.123000000     1.922000000    -4.135000000
C     2.522000000     1.599000000    -4.111000000
H     3.306000000     2.335000000    -3.953000000
C     0.211000000     0.942000000    -4.314000000
C     0.626000000    -0.408000000    -4.517000000
H    -0.027000000    -1.262000000    -4.673000000
C     2.006000000    -0.728000000    -4.388000000
O     2.263000000    -2.049000000    -4.192000000
C     2.258000000    -2.493000000    -2.777000000
C     1.341000000    -3.764000000    -2.688000000
C     0.327000000    -4.020000000    -3.636000000
H     0.315000000    -3.538000000    -4.610000000
C     1.327000000    -4.473000000    -1.503000000
H     2.030000000    -4.119000000    -0.753000000
O     3.633000000    -2.715000000    -2.418000000
H     1.839000000    -1.736000000    -2.099000000
C     2.939000000     0.257000000    -4.105000000
C     4.347000000    -0.102000000    -3.739000000
H     4.874000000     0.813000000    -4.020000000
H     4.674000000    -0.949000000    -4.345000000
C     4.411000000    -0.420000000    -2.206000000
C     4.144000000    -1.720000000    -1.733000000
C     4.255000000    -2.011000000    -0.351000000
H     3.993000000    -2.970000000     0.088000000
C     4.607000000    -1.021000000     0.492000000
O     4.373000000    -1.199000000     1.810000000
C     3.133000000    -0.717000000     2.400000000
H     2.411000000    -0.476000000     1.606000000
C     2.467000000    -1.755000000     3.308000000
C     1.481000000    -1.270000000     4.159000000
H     1.114000000    -0.247000000     4.140000000
C     2.735000000    -3.171000000     3.257000000
H     3.555000000    -3.566000000     2.663000000
C     2.131000000    -4.095000000     4.091000000
O     2.600000000    -5.404000000     4.101000000
C     1.189000000    -3.560000000     4.963000000
H     0.784000000    -4.136000000     5.792000000
C     0.881000000    -2.149000000     5.008000000
O     0.038000000    -1.674000000     6.065000000
C    -0.096000000    -0.375000000     6.569000000
C    -1.196000000     0.420000000     6.187000000
H    -2.018000000    -0.031000000     5.637000000
C     0.866000000     0.194000000     7.450000000
H     1.590000000    -0.488000000     7.889000000
C     0.819000000     1.523000000     7.949000000
H     1.595000000     1.962000000     8.570000000
C    -0.343000000     2.201000000     7.561000000
H    -0.466000000     3.204000000     7.961000000
C    -1.261000000     1.694000000     6.706000000
O    -2.309000000     2.514000000     6.508000000
C    -2.449000000     2.975000000     5.194000000
C    -3.811000000     3.054000000     4.780000000
H    -4.639000000     2.699000000     5.389000000
C    -4.074000000     3.459000000     3.492000000
O    -5.383000000     3.390000000     3.101000000
C    -5.757000000     3.559000000     1.782000000
C    -5.984000000     2.420000000     1.043000000
H    -5.867000000     1.435000000     1.487000000
C    -5.630000000     4.824000000     1.169000000
H    -5.438000000     5.697000000     1.787000000
C    -5.909000000     5.001000000    -0.199000000
H    -5.894000000     6.001000000    -0.623000000
C    -6.173000000     3.835000000    -0.867000000
H    -6.346000000     3.838000000    -1.940000000
C    -6.138000000     2.522000000    -0.306000000
O    -6.314000000     1.383000000    -1.019000000
C    -5.449000000     0.816000000    -1.916000000
C    -5.741000000    -0.263000000    -2.690000000
H    -6.704000000    -0.707000000    -2.449000000
C    -4.787000000    -0.828000000    -3.561000000
O    -5.156000000    -1.975000000    -4.270000000
C    -4.212000000    -2.702000000    -4.995000000
C    -3.402000000    -3.604000000    -4.290000000
H    -3.574000000    -3.756000000    -3.228000000
C    -4.120000000    -2.609000000    -6.344000000
H    -4.734000000    -1.939000000    -6.941000000
C    -3.158000000    -3.361000000    -7.034000000
H    -3.056000000    -3.186000000    -8.102000000
C    -2.272000000    -4.223000000    -6.325000000
H    -1.555000000    -4.820000000    -6.884000000
C    -2.431000000    -4.309000000    -4.945000000
O    -1.647000000    -5.241000000    -4.272000000
C    -0.680000000    -4.922000000    -3.345000000
C    -0.603000000    -5.697000000    -2.152000000
H    -1.237000000    -6.576000000    -2.067000000
C     0.403000000    -5.489000000    -1.240000000
O     0.518000000    -6.322000000    -0.182000000
C     1.626000000    -6.475000000     0.688000000
C     2.853000000    -6.978000000     0.280000000
H     3.131000000    -7.308000000    -0.717000000
C     3.850000000    -7.332000000     1.207000000
H     4.740000000    -7.878000000     0.904000000
C     3.778000000    -6.760000000     2.440000000
H     4.629000000    -6.881000000     3.106000000
C     2.608000000    -6.032000000     2.817000000
C     1.560000000    -5.836000000     1.898000000
H     0.705000000    -5.222000000     2.170000000
O    -8.387000000    -3.577000000    -1.813000000
H    -8.689000000    -4.436000000    -1.516000000
H    -7.836000000    -3.257000000    -1.098000000
O    -8.515000000    -0.053000000     1.231000000
H    -9.281000000    -0.448000000     0.813000000
H    -8.318000000     0.714000000     0.692000000
O    -8.940000000    -2.954000000     1.835000000
H    -9.133000000    -3.888000000     1.761000000
H    -7.985000000    -2.909000000     1.881000000
O    -6.324000000    -2.596000000     0.017000000
H    -5.457000000    -2.639000000     0.419000000
H    -6.498000000    -1.659000000    -0.077000000
O    -6.168000000    -1.073000000     4.306000000
H    -5.282000000    -1.101000000     3.945000000
H    -6.181000000    -1.771000000     4.962000000
O    -7.266000000    -6.035000000     5.243000000
H    -6.806000000    -6.565000000     4.593000000
H    -7.330000000    -5.168000000     4.842000000
O    -7.825000000     0.932000000     3.632000000
H    -7.105000000     0.338000000     3.846000000
H    -8.134000000     0.635000000     2.777000000
O    -5.930000000    -4.284000000     3.085000000
H    -6.315000000    -4.852000000     2.418000000
H    -5.381000000    -3.674000000     2.593000000
O    -5.127000000    -5.408000000    -2.129000000
H    -5.125000000    -6.287000000    -2.507000000
H    -5.721000000    -4.908000000    -2.689000000
O    -6.577000000    -5.381000000     0.749000000
H    -6.358000000    -6.081000000     0.134000000
H    -6.337000000    -4.575000000     0.291000000
O    -0.785000000    -7.221000000     3.674000000
H    -0.304000000    -7.203000000     4.501000000
H    -1.301000000    -6.414000000     3.680000000
O    -2.425000000    -7.361000000     1.193000000
H    -2.577000000    -6.505000000     0.792000000
H    -1.786000000    -7.191000000     1.885000000
O    -4.079000000    -3.538000000     5.065000000
H    -4.072000000    -2.804000000     4.450000000
H    -4.849000000    -4.050000000     4.817000000
O    -3.028000000    -4.873000000    -0.006000000
H    -3.714000000    -5.128000000    -0.624000000
H    -3.474000000    -4.311000000     0.628000000
O    -2.688000000    -6.390000000     5.884000000
H    -2.666000000    -6.978000000     6.640000000
H    -2.876000000    -5.529000000     6.256000000
O    -9.622000000    -1.516000000     3.901000000
H    -8.712000000    -1.281000000     4.085000000
H    -9.600000000    -1.884000000     3.018000000
O    -2.143000000    -4.704000000     3.219000000
H    -2.740000000    -4.340000000     3.873000000
H    -2.554000000    -4.499000000     2.380000000
O    -4.213000000    -2.107000000     7.998000000
H    -3.856000000    -2.371000000     7.150000000
H    -5.140000000    -2.342000000     7.952000000
O    -7.062000000    -2.173000000     6.927000000
H    -7.203000000    -1.257000000     6.689000000
H    -7.911000000    -2.469000000     7.255000000
