201
-1262.22213
C    -1.181000000     4.113000000     2.265000000
H    -1.458000000     4.216000000     1.219000000
C     0.211000000     3.951000000     2.541000000
C     0.581000000     3.729000000     3.848000000
H     1.611000000     3.662000000     4.189000000
C     1.236000000     3.975000000     1.427000000
O     0.896000000     4.875000000     0.335000000
H     1.145000000     2.957000000     1.020000000
O     2.667000000     4.221000000     1.834000000
C     3.487000000     3.224000000     1.356000000
C     3.761000000     2.117000000     2.138000000
H     3.448000000     2.117000000     3.179000000
C     4.352000000     0.993000000     1.616000000
O     4.293000000    -0.150000000     2.379000000
C     4.804000000     0.976000000     0.277000000
C     5.441000000    -0.256000000    -0.334000000
H     6.154000000     0.029000000    -1.110000000
C     4.447000000    -1.222000000    -0.916000000
C     4.087000000    -1.182000000    -2.304000000
H     4.445000000    -0.384000000    -2.949000000
H     6.138000000    -0.786000000     0.318000000
C     4.554000000     2.092000000    -0.509000000
H     4.831000000     1.993000000    -1.555000000
C     3.903000000     3.215000000    -0.002000000
C     3.509000000     4.318000000    -0.899000000
H     4.295000000     4.543000000    -1.624000000
H     3.465000000     5.233000000    -0.304000000
C     2.197000000     4.102000000    -1.635000000
C     2.182000000     3.522000000    -2.905000000
H     3.062000000     3.196000000    -3.454000000
C     0.989000000     4.373000000    -0.971000000
C    -0.193000000     4.113000000    -1.624000000
H    -1.093000000     4.450000000    -1.117000000
C    -0.189000000     3.669000000    -2.937000000
O    -1.396000000     3.375000000    -3.483000000
C    -1.889000000     2.004000000    -3.451000000
C    -3.354000000     1.904000000    -3.085000000
C    -4.018000000     0.650000000    -3.209000000
H    -3.513000000    -0.263000000    -3.512000000
C    -4.002000000     2.929000000    -2.468000000
H    -3.517000000     3.894000000    -2.342000000
O    -1.740000000     1.312000000    -4.729000000
H    -1.378000000     1.582000000    -2.573000000
C     0.986000000     3.291000000    -3.561000000
C     0.969000000     2.551000000    -4.918000000
H     1.979000000     2.649000000    -5.322000000
H     0.214000000     2.977000000    -5.582000000
C     0.695000000     1.048000000    -4.766000000
C     1.779000000     0.181000000    -4.654000000
H     2.765000000     0.638000000    -4.663000000
C    -0.613000000     0.491000000    -4.707000000
C    -0.817000000    -0.873000000    -4.540000000
H    -1.835000000    -1.236000000    -4.430000000
C     0.318000000    -1.718000000    -4.273000000
O     0.153000000    -3.026000000    -3.850000000
C     0.425000000    -3.418000000    -2.495000000
C    -0.702000000    -4.415000000    -2.015000000
C    -1.940000000    -4.454000000    -2.732000000
H    -2.135000000    -3.729000000    -3.518000000
C    -0.594000000    -5.075000000    -0.800000000
H     0.229000000    -4.800000000    -0.147000000
O     1.756000000    -4.017000000    -2.346000000
H     0.340000000    -2.534000000    -1.846000000
C     1.621000000    -1.164000000    -4.448000000
C     2.788000000    -2.047000000    -4.261000000
H     3.658000000    -1.549000000    -4.695000000
H     2.650000000    -3.020000000    -4.737000000
C     3.176000000    -2.148000000    -2.821000000
C     2.760000000    -3.215000000    -1.956000000
C     3.038000000    -3.143000000    -0.601000000
H     2.572000000    -3.756000000     0.166000000
C     3.864000000    -2.151000000    -0.087000000
O     4.051000000    -2.158000000     1.289000000
C     3.324000000    -1.175000000     2.077000000
H     2.481000000    -0.809000000     1.472000000
C     2.738000000    -1.847000000     3.314000000
C     2.693000000    -1.135000000     4.506000000
H     3.165000000    -0.169000000     4.664000000
C     2.049000000    -3.042000000     3.253000000
H     2.008000000    -3.562000000     2.300000000
C     1.340000000    -3.609000000     4.351000000
O     1.030000000    -4.950000000     4.543000000
C     1.284000000    -2.856000000     5.458000000
H     0.864000000    -3.295000000     6.360000000
C     1.871000000    -1.593000000     5.498000000
O     1.795000000    -0.864000000     6.688000000
C     1.971000000     0.487000000     6.727000000
C     0.915000000     1.339000000     6.331000000
H     0.006000000     0.881000000     5.951000000
C     3.191000000     1.070000000     7.109000000
H     4.026000000     0.416000000     7.344000000
C     3.378000000     2.487000000     7.148000000
H     4.325000000     2.997000000     7.304000000
C     2.269000000     3.286000000     6.770000000
H     2.292000000     4.365000000     6.892000000
C     1.042000000     2.697000000     6.458000000
O    -0.012000000     3.504000000     6.153000000
C    -0.404000000     3.706000000     4.875000000
C    -1.797000000     3.786000000     4.520000000
H    -2.495000000     3.561000000     5.322000000
C    -2.166000000     4.027000000     3.235000000
O    -3.447000000     4.073000000     2.901000000
C    -4.133000000     4.655000000     1.817000000
C    -4.724000000     3.902000000     0.797000000
H    -4.805000000     2.828000000     0.939000000
C    -4.153000000     6.019000000     1.755000000
H    -3.679000000     6.656000000     2.497000000
C    -4.810000000     6.659000000     0.728000000
H    -4.935000000     7.736000000     0.816000000
C    -5.358000000     5.946000000    -0.314000000
H    -5.834000000     6.347000000    -1.205000000
C    -5.282000000     4.558000000    -0.325000000
O    -5.881000000     3.879000000    -1.339000000
C    -5.303000000     2.792000000    -1.985000000
C    -5.922000000     1.590000000    -2.139000000
H    -6.929000000     1.475000000    -1.746000000
C    -5.320000000     0.518000000    -2.778000000
O    -6.008000000    -0.717000000    -2.847000000
C    -5.514000000    -1.792000000    -3.522000000
C    -5.150000000    -2.942000000    -2.806000000
H    -5.361000000    -2.934000000    -1.740000000
C    -5.575000000    -1.891000000    -4.921000000
H    -5.911000000    -1.007000000    -5.457000000
C    -4.974000000    -3.000000000    -5.537000000
H    -5.064000000    -3.093000000    -6.616000000
C    -4.432000000    -4.046000000    -4.775000000
H    -4.038000000    -4.958000000    -5.217000000
C    -4.653000000    -4.058000000    -3.411000000
O    -4.248000000    -5.142000000    -2.647000000
C    -2.949000000    -5.198000000    -2.168000000
C    -2.766000000    -6.004000000    -1.014000000
H    -3.514000000    -6.666000000    -0.585000000
C    -1.568000000    -5.928000000    -0.311000000
O    -1.428000000    -6.772000000     0.766000000
C    -0.310000000    -6.805000000     1.538000000
C     0.697000000    -7.795000000     1.420000000
H     0.549000000    -8.635000000     0.746000000
C     1.734000000    -7.839000000     2.429000000
H     2.416000000    -8.684000000     2.379000000
C     1.763000000    -6.953000000     3.481000000
H     2.541000000    -7.179000000     4.206000000
C     0.917000000    -5.840000000     3.491000000
C    -0.201000000    -5.817000000     2.565000000
H    -1.023000000    -5.205000000     2.926000000
O    -4.623000000     1.953000000     3.964000000
H    -4.821000000     1.470000000     3.162000000
H    -3.937000000     2.570000000     3.709000000
O    -8.079000000    -0.698000000    -0.309000000
H    -7.144000000    -0.685000000    -0.104000000
H    -8.137000000    -1.171000000    -1.139000000
O    -7.794000000     4.820000000     2.112000000
H    -7.825000000     3.864000000     2.077000000
H    -6.899000000     5.041000000     1.857000000
O   -10.536000000     3.062000000     1.856000000
H   -10.166000000     3.556000000     2.587000000
H    -9.817000000     2.987000000     1.229000000
O    -6.211000000    -3.888000000     0.927000000
H    -5.998000000    -3.105000000     0.419000000
H    -7.050000000    -4.182000000     0.572000000
O    -8.974000000     1.656000000     4.639000000
H    -8.435000000     1.248000000     3.961000000
H    -8.660000000     2.559000000     4.683000000
O    -8.492000000    -3.553000000    -1.000000000
H    -9.419000000    -3.444000000    -0.787000000
H    -8.483000000    -4.196000000    -1.709000000
O    -1.718000000    -2.569000000     5.413000000
H    -2.580000000    -2.325000000     5.075000000
H    -1.110000000    -2.327000000     4.715000000
O    -7.529000000    -0.033000000     2.906000000
H    -7.477000000    -0.886000000     3.336000000
H    -6.650000000     0.113000000     2.557000000
O    -7.592000000     2.367000000     1.390000000
H    -7.176000000     1.998000000     0.611000000
H    -7.947000000     1.609000000     1.854000000
O    -9.872000000    -1.129000000     4.292000000
H    -9.853000000    -1.213000000     3.339000000
H    -9.408000000    -0.311000000     4.470000000
O    -4.119000000    -1.477000000     4.510000000
H    -4.478000000    -1.557000000     3.626000000
H    -4.496000000    -0.665000000     4.849000000
O    -6.964000000    -2.636000000     3.654000000
H    -6.466000000    -3.022000000     4.376000000
H    -6.830000000    -3.238000000     2.923000000
O   -10.080000000    -1.071000000     1.698000000
H    -9.412000000    -0.830000000     1.056000000
H   -10.685000000    -0.330000000     1.705000000
O    -8.647000000     0.484000000    -3.408000000
H    -7.733000000     0.279000000    -3.605000000
H    -9.124000000    -0.318000000    -3.621000000
O    -6.337000000     3.896000000     4.910000000
H    -6.180000000     3.157000000     4.322000000
H    -6.273000000     3.522000000     5.788000000
O    -1.084000000    -2.142000000     2.624000000
H    -0.847000000    -2.615000000     1.826000000
H    -1.939000000    -1.757000000     2.429000000
O    -6.929000000    -5.534000000     4.065000000
H    -6.938000000    -5.821000000     4.978000000
H    -7.839000000    -5.619000000     3.778000000
O    -4.568000000    -6.096000000     2.240000000
H    -5.124000000    -6.024000000     3.016000000
H    -5.020000000    -5.578000000     1.573000000
