201
-1255.79999
C    -0.369000000     3.911000000     3.279000000
H    -0.646000000     4.390000000     2.343000000
C     0.837000000     3.225000000     3.414000000
C     1.020000000     2.649000000     4.645000000
H     1.986000000     2.158000000     4.735000000
C     1.770000000     3.179000000     2.266000000
O     1.621000000     4.395000000     1.462000000
H     1.501000000     2.310000000     1.648000000
O     3.111000000     2.963000000     2.743000000
C     3.904000000     2.138000000     1.935000000
C     3.983000000     0.808000000     2.403000000
H     3.546000000     0.610000000     3.378000000
C     4.458000000    -0.192000000     1.575000000
O     4.273000000    -1.494000000     1.967000000
C     4.940000000     0.063000000     0.271000000
C     5.444000000    -1.036000000    -0.601000000
H     6.126000000    -0.512000000    -1.273000000
C     4.344000000    -1.682000000    -1.423000000
C     3.983000000    -1.267000000    -2.746000000
H     4.479000000    -0.418000000    -3.209000000
H     6.058000000    -1.773000000    -0.078000000
C     4.834000000     1.392000000    -0.211000000
H     5.131000000     1.604000000    -1.235000000
C     4.289000000     2.362000000     0.579000000
C     4.086000000     3.696000000    -0.025000000
H     4.837000000     3.798000000    -0.810000000
H     4.354000000     4.487000000     0.678000000
C     2.753000000     3.789000000    -0.646000000
C     2.582000000     3.545000000    -1.996000000
H     3.422000000     3.210000000    -2.600000000
C     1.586000000     4.161000000     0.101000000
C     0.323000000     4.407000000    -0.543000000
H    -0.441000000     4.893000000     0.059000000
C     0.169000000     4.068000000    -1.892000000
O    -1.032000000     4.077000000    -2.560000000
C    -1.707000000     2.822000000    -2.815000000
C    -3.163000000     2.781000000    -2.252000000
C    -4.054000000     1.709000000    -2.628000000
H    -3.771000000     0.938000000    -3.340000000
C    -3.586000000     3.760000000    -1.317000000
H    -2.938000000     4.577000000    -1.010000000
O    -1.668000000     2.367000000    -4.145000000
H    -1.213000000     2.022000000    -2.243000000
C     1.316000000     3.659000000    -2.582000000
C     1.122000000     3.407000000    -4.111000000
H     2.066000000     3.606000000    -4.621000000
H     0.394000000     4.117000000    -4.510000000
C     0.781000000     1.968000000    -4.431000000
C     1.780000000     1.009000000    -4.449000000
H     2.808000000     1.304000000    -4.255000000
C    -0.615000000     1.555000000    -4.489000000
C    -0.932000000     0.172000000    -4.643000000
H    -1.955000000    -0.157000000    -4.478000000
C     0.139000000    -0.778000000    -4.825000000
O    -0.149000000    -2.073000000    -4.630000000
C    -0.079000000    -2.754000000    -3.322000000
C    -1.285000000    -3.682000000    -3.063000000
C    -2.604000000    -3.310000000    -3.494000000
H    -2.713000000    -2.444000000    -4.141000000
C    -1.194000000    -4.643000000    -2.113000000
H    -0.202000000    -4.859000000    -1.725000000
O     1.072000000    -3.565000000    -3.368000000
H    -0.036000000    -1.952000000    -2.570000000
C     1.452000000    -0.338000000    -4.676000000
C     2.548000000    -1.410000000    -4.861000000
H     3.373000000    -0.842000000    -5.296000000
H     2.387000000    -2.245000000    -5.546000000
C     2.911000000    -1.902000000    -3.453000000
C     2.281000000    -2.997000000    -2.887000000
C     2.614000000    -3.313000000    -1.593000000
H     2.142000000    -4.166000000    -1.111000000
C     3.569000000    -2.696000000    -0.841000000
O     3.721000000    -3.068000000     0.461000000
C     3.184000000    -2.227000000     1.497000000
H     2.460000000    -1.486000000     1.127000000
C     2.510000000    -3.016000000     2.679000000
C     2.295000000    -2.435000000     3.886000000
H     2.643000000    -1.413000000     4.019000000
C     1.955000000    -4.290000000     2.444000000
H     2.051000000    -4.719000000     1.450000000
C     1.231000000    -4.953000000     3.423000000
O     0.560000000    -6.109000000     3.167000000
C     0.996000000    -4.346000000     4.667000000
H     0.413000000    -4.853000000     5.433000000
C     1.483000000    -3.055000000     4.838000000
O     1.289000000    -2.485000000     6.070000000
C     1.758000000    -1.247000000     6.405000000
C     0.841000000    -0.206000000     6.470000000
H    -0.214000000    -0.327000000     6.238000000
C     3.150000000    -1.036000000     6.584000000
H     3.782000000    -1.911000000     6.452000000
C     3.632000000     0.171000000     6.944000000
H     4.707000000     0.327000000     6.958000000
C     2.749000000     1.236000000     7.168000000
H     3.169000000     2.166000000     7.541000000
C     1.338000000     1.067000000     6.872000000
O     0.548000000     2.207000000     6.878000000
C     0.165000000     2.801000000     5.711000000
C    -1.020000000     3.384000000     5.565000000
H    -1.710000000     3.361000000     6.405000000
C    -1.360000000     3.946000000     4.319000000
O    -2.611000000     4.523000000     4.245000000
C    -2.997000000     5.124000000     3.077000000
C    -3.768000000     4.416000000     2.173000000
H    -4.100000000     3.390000000     2.308000000
C    -2.656000000     6.459000000     2.913000000
H    -2.108000000     6.978000000     3.695000000
C    -3.191000000     7.160000000     1.821000000
H    -2.933000000     8.200000000     1.637000000
C    -3.987000000     6.473000000     0.903000000
H    -4.461000000     6.922000000     0.034000000
C    -4.316000000     5.162000000     1.129000000
O    -5.201000000     4.479000000     0.307000000
C    -4.787000000     3.588000000    -0.590000000
C    -5.616000000     2.504000000    -0.949000000
H    -6.537000000     2.258000000    -0.427000000
C    -5.328000000     1.691000000    -2.079000000
O    -6.308000000     0.825000000    -2.441000000
C    -6.160000000    -0.177000000    -3.365000000
C    -5.617000000    -1.385000000    -2.977000000
H    -5.201000000    -1.513000000    -1.981000000
C    -6.798000000    -0.061000000    -4.571000000
H    -7.084000000     0.957000000    -4.820000000
C    -6.882000000    -1.121000000    -5.415000000
H    -7.366000000    -0.932000000    -6.369000000
C    -6.259000000    -2.349000000    -5.127000000
H    -6.404000000    -3.135000000    -5.864000000
C    -5.573000000    -2.398000000    -3.888000000
O    -5.020000000    -3.560000000    -3.456000000
C    -3.763000000    -3.915000000    -2.984000000
C    -3.607000000    -4.857000000    -1.976000000
H    -4.389000000    -5.453000000    -1.513000000
C    -2.346000000    -5.331000000    -1.626000000
O    -2.222000000    -6.374000000    -0.659000000
C    -1.089000000    -6.713000000     0.015000000
C    -0.087000000    -7.462000000    -0.666000000
H    -0.353000000    -7.747000000    -1.680000000
C     1.117000000    -7.781000000    -0.028000000
H     1.934000000    -8.324000000    -0.496000000
C     1.336000000    -7.359000000     1.295000000
H     2.259000000    -7.692000000     1.761000000
C     0.341000000    -6.599000000     1.941000000
C    -0.799000000    -6.260000000     1.303000000
H    -1.471000000    -5.627000000     1.877000000
O    -6.103000000    -2.574000000     5.397000000
H    -5.198000000    -2.744000000     5.136000000
H    -6.607000000    -2.667000000     4.589000000
O    -6.968000000    -4.271000000    -0.357000000
H    -6.300000000    -3.659000000    -0.047000000
H    -7.052000000    -4.911000000     0.349000000
O    -9.182000000    -2.877000000     3.619000000
H    -9.797000000    -3.410000000     3.114000000
H    -8.318000000    -3.151000000     3.311000000
O    -7.583000000     1.590000000     2.871000000
H    -7.854000000     2.507000000     2.828000000
H    -7.751000000     1.250000000     1.992000000
O    -5.068000000     0.040000000     2.893000000
H    -5.899000000     0.512000000     2.956000000
H    -5.040000000    -0.275000000     1.990000000
O    -3.261000000    -5.254000000     6.853000000
H    -3.584000000    -6.023000000     6.383000000
H    -3.200000000    -4.572000000     6.184000000
O    -6.320000000    -5.280000000     6.003000000
H    -5.761000000    -5.416000000     5.237000000
H    -6.142000000    -4.379000000     6.272000000
O    -6.522000000    -3.374000000     2.664000000
H    -6.693000000    -2.850000000     1.882000000
H    -5.677000000    -3.791000000     2.493000000
O    -9.605000000     0.031000000    -1.223000000
H    -9.913000000     0.028000000    -2.130000000
H    -9.711000000    -0.874000000    -0.931000000
O    -1.951000000    -1.774000000     3.601000000
H    -1.631000000    -1.534000000     2.732000000
H    -1.981000000    -0.948000000     4.083000000
O    -9.316000000    -2.877000000    -0.763000000
H    -8.492000000    -3.348000000    -0.635000000
H    -9.816000000    -3.430000000    -1.363000000
O    -5.638000000    -7.652000000    -0.785000000
H    -6.521000000    -7.997000000    -0.654000000
H    -5.572000000    -7.515000000    -1.730000000
O    -3.265000000     0.203000000     4.988000000
H    -3.469000000     0.999000000     5.479000000
H    -3.904000000     0.191000000     4.276000000
O    -4.486000000    -6.313000000     4.156000000
H    -5.302000000    -6.812000000     4.201000000
H    -4.301000000    -6.241000000     3.219000000
O    -8.418000000    -6.314000000     1.036000000
H    -9.150000000    -5.783000000     1.350000000
H    -8.547000000    -6.363000000     0.088000000
O    -7.479000000     0.105000000     0.595000000
H    -8.057000000     0.053000000    -0.167000000
H    -6.906000000    -0.657000000     0.514000000
O    -7.422000000    -5.409000000    -3.161000000
H    -6.914000000    -4.859000000    -2.565000000
H    -6.799000000    -6.064000000    -3.474000000
O    -3.686000000    -3.433000000     4.801000000
H    -3.471000000    -3.994000000     4.055000000
H    -3.210000000    -2.620000000     4.634000000
O    -3.922000000    -6.386000000     1.474000000
H    -3.896000000    -5.453000000     1.260000000
H    -4.486000000    -6.770000000     0.803000000
