201
-1268.67771
C    -0.392000000     3.295000000     3.802000000
H    -0.644000000     4.208000000     3.270000000
C     0.853000000     2.558000000     3.645000000
C     1.069000000     1.407000000     4.342000000
H     1.922000000     0.750000000     4.196000000
C     1.806000000     2.888000000     2.549000000
O     1.613000000     4.281000000     2.169000000
H     1.539000000     2.281000000     1.671000000
O     3.203000000     2.697000000     2.810000000
C     3.906000000     1.966000000     1.855000000
C     4.036000000     0.579000000     2.028000000
H     3.738000000     0.155000000     2.984000000
C     4.351000000    -0.201000000     0.927000000
O     4.357000000    -1.571000000     1.170000000
C     4.730000000     0.373000000    -0.268000000
C     5.415000000    -0.490000000    -1.349000000
H     6.194000000     0.110000000    -1.823000000
C     4.311000000    -1.086000000    -2.212000000
C     3.757000000    -0.386000000    -3.287000000
H     4.111000000     0.610000000    -3.541000000
H     5.990000000    -1.299000000    -0.894000000
C     4.669000000     1.728000000    -0.471000000
H     4.897000000     2.101000000    -1.466000000
C     4.207000000     2.540000000     0.593000000
C     3.961000000     4.012000000     0.355000000
H     4.677000000     4.413000000    -0.365000000
H     4.037000000     4.489000000     1.334000000
C     2.509000000     4.276000000    -0.121000000
C     2.241000000     4.282000000    -1.498000000
H     3.020000000     4.059000000    -2.223000000
C     1.452000000     4.459000000     0.846000000
C     0.122000000     4.588000000     0.390000000
H    -0.722000000     4.671000000     1.070000000
C    -0.072000000     4.606000000    -1.003000000
O    -1.406000000     4.584000000    -1.408000000
C    -1.981000000     3.338000000    -1.792000000
C    -3.314000000     3.075000000    -1.149000000
C    -4.133000000     2.017000000    -1.559000000
H    -3.770000000     1.351000000    -2.337000000
C    -3.747000000     3.854000000    -0.035000000
H    -3.050000000     4.627000000     0.278000000
O    -2.057000000     3.261000000    -3.240000000
H    -1.410000000     2.477000000    -1.416000000
C     0.920000000     4.414000000    -1.934000000
C     0.680000000     4.417000000    -3.439000000
H     1.616000000     4.597000000    -3.972000000
H    -0.062000000     5.130000000    -3.804000000
C     0.249000000     2.948000000    -3.835000000
C     1.254000000     2.067000000    -4.239000000
H     2.304000000     2.330000000    -4.139000000
C    -1.084000000     2.510000000    -3.820000000
C    -1.384000000     1.232000000    -4.267000000
H    -2.431000000     0.971000000    -4.139000000
C    -0.401000000     0.331000000    -4.522000000
O    -0.672000000    -0.967000000    -4.785000000
C    -0.298000000    -1.991000000    -3.841000000
C    -1.485000000    -3.024000000    -3.610000000
C    -2.816000000    -2.618000000    -3.841000000
H    -3.071000000    -1.626000000    -4.206000000
C    -1.182000000    -4.267000000    -3.076000000
H    -0.144000000    -4.553000000    -2.931000000
O     0.928000000    -2.557000000    -4.214000000
H    -0.096000000    -1.533000000    -2.862000000
C     0.927000000     0.779000000    -4.608000000
C     2.026000000    -0.132000000    -5.139000000
H     2.794000000     0.428000000    -5.675000000
H     1.607000000    -0.837000000    -5.860000000
C     2.682000000    -0.913000000    -4.050000000
C     2.136000000    -2.177000000    -3.681000000
C     2.597000000    -2.858000000    -2.585000000
H     1.983000000    -3.618000000    -2.109000000
C     3.697000000    -2.343000000    -1.911000000
O     4.084000000    -2.977000000    -0.748000000
C     3.486000000    -2.468000000     0.475000000
H     2.548000000    -1.971000000     0.186000000
C     3.165000000    -3.555000000     1.558000000
C     3.367000000    -3.335000000     2.920000000
H     3.813000000    -2.421000000     3.305000000
C     2.414000000    -4.685000000     1.141000000
H     2.280000000    -4.895000000     0.083000000
C     1.857000000    -5.534000000     2.083000000
O     1.099000000    -6.608000000     1.686000000
C     2.069000000    -5.348000000     3.456000000
H     1.653000000    -6.023000000     4.200000000
C     2.923000000    -4.254000000     3.831000000
O     3.182000000    -4.059000000     5.205000000
C     2.964000000    -2.823000000     5.788000000
C     1.740000000    -2.162000000     5.580000000
H     0.999000000    -2.522000000     4.872000000
C     3.879000000    -2.314000000     6.796000000
H     4.747000000    -2.856000000     7.164000000
C     3.729000000    -0.967000000     7.188000000
H     4.376000000    -0.653000000     8.002000000
C     2.560000000    -0.243000000     6.831000000
H     2.501000000     0.772000000     7.213000000
C     1.554000000    -0.918000000     6.173000000
O     0.302000000    -0.193000000     6.085000000
C     0.122000000     0.986000000     5.286000000
C    -0.945000000     1.802000000     5.523000000
H    -1.557000000     1.509000000     6.372000000
C    -1.287000000     2.924000000     4.817000000
O    -2.357000000     3.495000000     5.266000000
C    -3.081000000     4.453000000     4.571000000
C    -3.758000000     4.003000000     3.405000000
H    -3.734000000     2.949000000     3.138000000
C    -3.080000000     5.835000000     4.936000000
H    -2.423000000     6.070000000     5.770000000
C    -3.904000000     6.713000000     4.187000000
H    -3.911000000     7.788000000     4.346000000
C    -4.646000000     6.235000000     3.143000000
H    -5.344000000     6.922000000     2.670000000
C    -4.506000000     4.924000000     2.714000000
O    -5.342000000     4.577000000     1.675000000
C    -4.944000000     3.641000000     0.687000000
C    -5.783000000     2.626000000     0.204000000
H    -6.745000000     2.519000000     0.700000000
C    -5.394000000     1.780000000    -0.889000000
O    -6.182000000     0.671000000    -1.208000000
C    -6.139000000     0.008000000    -2.393000000
C    -5.631000000    -1.278000000    -2.477000000
H    -5.260000000    -1.748000000    -1.570000000
C    -6.788000000     0.582000000    -3.472000000
H    -7.123000000     1.608000000    -3.344000000
C    -6.831000000    -0.087000000    -4.669000000
H    -7.229000000     0.427000000    -5.540000000
C    -6.376000000    -1.380000000    -4.765000000
H    -6.463000000    -1.907000000    -5.712000000
C    -5.664000000    -1.986000000    -3.683000000
O    -5.166000000    -3.311000000    -3.827000000
C    -3.844000000    -3.589000000    -3.570000000
C    -3.534000000    -4.806000000    -2.869000000
H    -4.279000000    -5.555000000    -2.614000000
C    -2.214000000    -5.134000000    -2.649000000
O    -1.974000000    -6.386000000    -2.081000000
C    -0.750000000    -6.781000000    -1.532000000
C     0.212000000    -7.468000000    -2.293000000
H    -0.174000000    -7.955000000    -3.185000000
C     1.447000000    -7.803000000    -1.746000000
H     2.133000000    -8.369000000    -2.370000000
C     1.815000000    -7.443000000    -0.414000000
H     2.799000000    -7.657000000    -0.003000000
C     0.812000000    -6.910000000     0.395000000
C    -0.450000000    -6.524000000    -0.210000000
H    -1.152000000    -6.009000000     0.441000000
O    -6.440000000    -5.662000000     1.385000000
H    -5.488000000    -5.727000000     1.457000000
H    -6.726000000    -5.363000000     2.249000000
O    -4.778000000    -4.218000000     4.360000000
H    -3.821000000    -4.226000000     4.376000000
H    -5.016000000    -5.002000000     3.865000000
O    -1.649000000    -4.298000000     7.440000000
H    -2.463000000    -4.191000000     7.933000000
H    -1.920000000    -4.269000000     6.522000000
O    -1.791000000    -3.848000000     4.839000000
H    -1.789000000    -4.259000000     3.974000000
H    -1.830000000    -2.909000000     4.657000000
O    -8.575000000    -4.359000000     0.128000000
H    -7.939000000    -4.925000000     0.566000000
H    -8.199000000    -4.203000000    -0.739000000
O    -3.028000000    -9.394000000     1.015000000
H    -3.298000000    -8.545000000     0.666000000
H    -2.156000000    -9.538000000     0.648000000
O    -4.375000000    -7.635000000     5.989000000
H    -4.253000000    -7.058000000     5.235000000
H    -4.388000000    -8.516000000     5.616000000
O    -4.323000000    -6.718000000     3.424000000
H    -4.805000000    -7.369000000     2.914000000
H    -3.619000000    -6.432000000     2.841000000
O    -8.184000000    -0.533000000     0.858000000
H    -7.368000000    -0.911000000     0.530000000
H    -8.865000000    -0.916000000     0.304000000
O    -3.802000000     0.496000000     3.570000000
H    -4.557000000     0.777000000     4.087000000
H    -3.995000000    -0.412000000     3.337000000
O    -1.754000000    -1.295000000     3.862000000
H    -2.083000000    -0.396000000     3.858000000
H    -1.377000000    -1.416000000     2.991000000
O    -7.763000000    -3.855000000     3.225000000
H    -8.644000000    -3.993000000     2.877000000
H    -7.745000000    -2.930000000     3.470000000
O    -6.752000000    -8.465000000     0.054000000
H    -6.284000000    -7.654000000     0.250000000
H    -7.677000000    -8.238000000     0.151000000
O    -5.383000000    -1.897000000     3.180000000
H    -5.343000000    -2.745000000     3.621000000
H    -5.612000000    -2.108000000     2.275000000
O    -7.309000000    -2.909000000     6.044000000
H    -7.642000000    -2.458000000     5.267000000
H    -6.512000000    -3.345000000     5.744000000
O    -5.389000000    -9.208000000     2.408000000
H    -6.029000000    -9.455000000     1.741000000
H    -4.543000000    -9.270000000     1.963000000
O    -6.115000000    -2.692000000     0.757000000
H    -7.031000000    -2.963000000     0.820000000
H    -5.670000000    -3.442000000     0.364000000
O    -1.257000000    -7.228000000     3.736000000
H    -1.909000000    -6.576000000     3.479000000
H    -0.416000000    -6.817000000     3.538000000
O    -3.981000000    -7.362000000    -0.490000000
H    -3.812000000    -6.467000000    -0.195000000
H    -3.632000000    -7.389000000    -1.381000000
