201
-1222.82493
C    -0.274000000     3.315000000     4.010000000
H    -0.697000000     3.997000000     3.276000000
C     0.973000000     2.595000000     3.850000000
C     1.309000000     1.633000000     4.790000000
H     2.222000000     1.053000000     4.682000000
C     1.901000000     2.917000000     2.622000000
O     1.885000000     4.298000000     2.167000000
H     1.568000000     2.235000000     1.826000000
O     3.276000000     2.496000000     3.030000000
C     3.975000000     1.767000000     2.025000000
C     4.102000000     0.347000000     2.225000000
H     3.746000000    -0.252000000     3.060000000
C     4.504000000    -0.494000000     1.185000000
O     4.505000000    -1.840000000     1.361000000
C     4.921000000     0.075000000    -0.011000000
C     5.413000000    -0.865000000    -1.165000000
H     5.926000000    -0.343000000    -1.975000000
C     4.231000000    -1.409000000    -1.925000000
C     3.833000000    -0.745000000    -3.107000000
H     4.389000000     0.098000000    -3.508000000
H     5.766000000    -1.842000000    -0.828000000
C     4.854000000     1.460000000    -0.223000000
H     5.215000000     1.914000000    -1.142000000
C     4.391000000     2.349000000     0.779000000
C     4.167000000     3.795000000     0.608000000
H     4.974000000     4.127000000    -0.048000000
H     4.373000000     4.237000000     1.586000000
C     2.844000000     4.204000000     0.031000000
C     2.657000000     4.071000000    -1.363000000
H     3.507000000     3.628000000    -1.877000000
C     1.761000000     4.539000000     0.815000000
C     0.507000000     4.776000000     0.323000000
H    -0.272000000     5.228000000     0.931000000
C     0.347000000     4.609000000    -1.046000000
O    -1.007000000     4.734000000    -1.480000000
C    -1.650000000     3.511000000    -2.068000000
C    -3.141000000     3.324000000    -1.705000000
C    -4.098000000     2.740000000    -2.601000000
H    -3.834000000     2.325000000    -3.570000000
C    -3.459000000     3.745000000    -0.412000000
H    -2.661000000     4.157000000     0.200000000
O    -1.506000000     3.555000000    -3.497000000
H    -1.101000000     2.672000000    -1.616000000
C     1.421000000     4.287000000    -1.909000000
C     1.302000000     4.256000000    -3.461000000
H     2.291000000     4.481000000    -3.866000000
H     0.600000000     5.030000000    -3.779000000
C     0.763000000     2.935000000    -3.976000000
C     1.642000000     1.880000000    -4.366000000
H     2.682000000     2.187000000    -4.294000000
C    -0.595000000     2.609000000    -3.992000000
C    -1.051000000     1.297000000    -4.146000000
H    -2.097000000     1.045000000    -3.991000000
C    -0.186000000     0.282000000    -4.522000000
O    -0.672000000    -0.960000000    -4.754000000
C    -0.400000000    -1.948000000    -3.696000000
C    -1.578000000    -2.786000000    -3.253000000
C    -2.856000000    -2.236000000    -3.328000000
H    -3.045000000    -1.246000000    -3.735000000
C    -1.392000000    -3.982000000    -2.600000000
H    -0.425000000    -4.462000000    -2.475000000
O     0.821000000    -2.715000000    -4.015000000
H    -0.140000000    -1.374000000    -2.794000000
C     1.179000000     0.626000000    -4.687000000
C     2.215000000    -0.461000000    -5.113000000
H     3.064000000    -0.013000000    -5.633000000
H     1.856000000    -1.145000000    -5.885000000
C     2.666000000    -1.176000000    -3.805000000
C     1.958000000    -2.320000000    -3.350000000
C     2.375000000    -2.907000000    -2.178000000
H     1.721000000    -3.709000000    -1.844000000
C     3.475000000    -2.529000000    -1.455000000
O     3.745000000    -3.198000000    -0.299000000
C     3.283000000    -2.500000000     0.853000000
H     2.570000000    -1.734000000     0.516000000
C     2.730000000    -3.429000000     1.836000000
C     2.846000000    -3.232000000     3.222000000
H     3.355000000    -2.385000000     3.675000000
C     1.794000000    -4.361000000     1.303000000
H     1.518000000    -4.533000000     0.266000000
C     1.234000000    -5.263000000     2.228000000
O     0.640000000    -6.407000000     1.815000000
C     1.451000000    -5.186000000     3.595000000
H     0.983000000    -5.884000000     4.284000000
C     2.157000000    -4.089000000     4.108000000
O     2.369000000    -3.997000000     5.494000000
C     2.528000000    -2.762000000     6.090000000
C     1.460000000    -1.888000000     6.119000000
H     0.473000000    -2.163000000     5.755000000
C     3.780000000    -2.441000000     6.583000000
H     4.574000000    -3.180000000     6.506000000
C     4.031000000    -1.162000000     7.126000000
H     5.028000000    -0.802000000     7.365000000
C     2.934000000    -0.317000000     7.266000000
H     3.029000000     0.753000000     7.434000000
C     1.647000000    -0.690000000     6.700000000
O     0.602000000     0.215000000     6.701000000
C     0.447000000     1.334000000     5.880000000
C    -0.762000000     1.958000000     5.909000000
H    -1.443000000     1.696000000     6.714000000
C    -1.147000000     2.913000000     4.993000000
O    -2.465000000     3.304000000     5.095000000
C    -3.168000000     4.125000000     4.283000000
C    -3.820000000     3.640000000     3.126000000
H    -3.754000000     2.572000000     2.935000000
C    -3.151000000     5.456000000     4.632000000
H    -2.609000000     5.876000000     5.475000000
C    -3.757000000     6.398000000     3.707000000
H    -3.764000000     7.440000000     4.017000000
C    -4.372000000     5.909000000     2.563000000
H    -4.892000000     6.573000000     1.877000000
C    -4.386000000     4.544000000     2.209000000
O    -5.095000000     3.967000000     1.179000000
C    -4.767000000     3.568000000    -0.023000000
C    -5.718000000     2.990000000    -0.857000000
H    -6.731000000     2.890000000    -0.474000000
C    -5.417000000     2.572000000    -2.177000000
O    -6.399000000     2.032000000    -2.994000000
C    -6.248000000     0.855000000    -3.654000000
C    -5.817000000    -0.260000000    -2.966000000
H    -5.591000000    -0.163000000    -1.907000000
C    -6.439000000     0.802000000    -5.045000000
H    -6.843000000     1.597000000    -5.667000000
C    -6.305000000    -0.413000000    -5.738000000
H    -6.679000000    -0.438000000    -6.758000000
C    -5.908000000    -1.536000000    -5.045000000
H    -5.919000000    -2.433000000    -5.659000000
C    -5.748000000    -1.474000000    -3.639000000
O    -5.281000000    -2.594000000    -3.018000000
C    -3.974000000    -2.944000000    -2.876000000
C    -3.750000000    -4.194000000    -2.282000000
H    -4.563000000    -4.838000000    -1.958000000
C    -2.447000000    -4.749000000    -2.208000000
O    -2.350000000    -6.050000000    -1.821000000
C    -1.384000000    -6.768000000    -1.227000000
C    -0.749000000    -7.812000000    -1.890000000
H    -1.165000000    -8.219000000    -2.808000000
C     0.237000000    -8.528000000    -1.227000000
H     0.531000000    -9.516000000    -1.573000000
C     0.833000000    -8.074000000    -0.062000000
H     1.634000000    -8.584000000     0.467000000
C     0.274000000    -6.916000000     0.520000000
C    -0.734000000    -6.216000000    -0.141000000
H    -1.095000000    -5.276000000     0.269000000
O    -5.099000000    -5.624000000     0.433000000
H    -4.604000000    -4.887000000     0.790000000
H    -5.785000000    -5.218000000    -0.097000000
O    -5.910000000    -4.256000000     3.369000000
H    -5.028000000    -4.104000000     3.030000000
H    -5.993000000    -3.647000000     4.102000000
O    -1.011000000    -3.550000000     7.901000000
H    -0.997000000    -4.418000000     7.499000000
H    -1.319000000    -2.969000000     7.206000000
O    -3.365000000    -3.776000000     5.267000000
H    -3.355000000    -4.685000000     5.566000000
H    -3.171000000    -3.829000000     4.331000000
O    -6.808000000    -4.550000000    -1.512000000
H    -7.627000000    -4.417000000    -1.035000000
H    -6.993000000    -4.238000000    -2.398000000
O    -3.804000000    -9.328000000     1.723000000
H    -3.960000000    -8.630000000     2.359000000
H    -2.851000000    -9.400000000     1.674000000
O    -3.589000000    -8.178000000     5.167000000
H    -3.784000000    -7.486000000     4.535000000
H    -3.420000000    -7.713000000     5.986000000
O    -6.586000000    -5.954000000     5.586000000
H    -6.386000000    -5.540000000     4.747000000
H    -6.601000000    -6.892000000     5.393000000
O    -4.019000000    -6.916000000     2.675000000
H    -4.462000000    -6.882000000     1.827000000
H    -3.314000000    -6.273000000     2.602000000
O    -4.064000000    -0.079000000     2.238000000
H    -3.819000000    -0.894000000     1.799000000
H    -5.015000000    -0.130000000     2.325000000
O    -2.554000000     0.262000000     4.365000000
H    -2.987000000    -0.154000000     3.619000000
H    -2.069000000     0.992000000     3.982000000
O    -1.387000000    -5.878000000     6.701000000
H    -1.214000000    -5.963000000     5.763000000
H    -2.255000000    -6.263000000     6.821000000
O    -2.519000000    -1.501000000     6.527000000
H    -2.788000000    -2.344000000     6.160000000
H    -2.414000000    -0.931000000     5.765000000
O    -6.889000000    -2.327000000     5.264000000
H    -7.828000000    -2.453000000     5.125000000
H    -6.794000000    -1.386000000     5.417000000
O    -6.998000000    -6.917000000     2.867000000
H    -6.938000000    -7.737000000     2.377000000
H    -6.115000000    -6.548000000     2.826000000
O    -7.794000000    -2.866000000     2.072000000
H    -7.127000000    -2.443000000     1.530000000
H    -7.344000000    -3.615000000     2.464000000
O    -5.773000000    -1.961000000     0.221000000
H    -5.714000000    -2.309000000    -0.669000000
H    -5.198000000    -2.526000000     0.737000000
O    -1.377000000    -6.275000000     3.902000000
H    -1.561000000    -5.444000000     3.464000000
H    -0.736000000    -6.706000000     3.338000000
O    -4.698000000    -7.592000000    -1.420000000
H    -4.875000000    -6.962000000    -0.722000000
H    -3.965000000    -7.213000000    -1.905000000
