201
-1234.69178
C    -0.467000000     3.778000000     4.046000000
H    -0.414000000     4.754000000     3.569000000
C     0.431000000     2.743000000     3.822000000
C     0.268000000     1.543000000     4.525000000
H     0.965000000     0.735000000     4.315000000
C     1.527000000     2.911000000     2.768000000
O     1.671000000     4.210000000     2.211000000
H     1.158000000     2.216000000     1.999000000
O     2.792000000     2.308000000     3.210000000
C     3.562000000     1.618000000     2.313000000
C     3.671000000     0.259000000     2.533000000
H     3.108000000    -0.290000000     3.284000000
C     4.250000000    -0.560000000     1.531000000
O     4.229000000    -1.938000000     1.741000000
C     4.778000000     0.015000000     0.376000000
C     5.396000000    -0.881000000    -0.686000000
H     6.103000000    -0.250000000    -1.228000000
C     4.479000000    -1.530000000    -1.740000000
C     4.213000000    -0.783000000    -2.886000000
H     4.748000000     0.129000000    -3.139000000
H     6.155000000    -1.580000000    -0.330000000
C     4.664000000     1.380000000     0.159000000
H     4.989000000     1.764000000    -0.804000000
C     4.039000000     2.183000000     1.159000000
C     3.981000000     3.635000000     0.833000000
H     4.810000000     3.840000000     0.152000000
H     4.184000000     4.267000000     1.701000000
C     2.748000000     4.129000000     0.080000000
C     2.616000000     4.092000000    -1.259000000
H     3.430000000     3.832000000    -1.931000000
C     1.647000000     4.321000000     0.861000000
C     0.416000000     4.483000000     0.261000000
H    -0.468000000     4.629000000     0.876000000
C     0.328000000     4.578000000    -1.152000000
O    -0.953000000     4.667000000    -1.673000000
C    -1.576000000     3.421000000    -2.023000000
C    -2.987000000     3.423000000    -1.484000000
C    -3.867000000     2.582000000    -2.133000000
H    -3.526000000     1.986000000    -2.975000000
C    -3.352000000     4.038000000    -0.287000000
H    -2.669000000     4.677000000     0.267000000
O    -1.490000000     3.215000000    -3.431000000
H    -1.096000000     2.597000000    -1.474000000
C     1.459000000     4.300000000    -1.926000000
C     1.414000000     4.183000000    -3.414000000
H     2.410000000     4.371000000    -3.819000000
H     0.810000000     5.002000000    -3.811000000
C     0.911000000     2.813000000    -3.900000000
C     1.832000000     1.854000000    -4.190000000
H     2.902000000     2.031000000    -4.123000000
C    -0.481000000     2.413000000    -3.849000000
C    -0.764000000     1.073000000    -4.276000000
H    -1.811000000     0.794000000    -4.182000000
C     0.189000000     0.179000000    -4.641000000
O    -0.268000000    -1.163000000    -4.771000000
C     0.087000000    -2.123000000    -3.728000000
C    -1.043000000    -3.063000000    -3.454000000
C    -2.361000000    -2.565000000    -3.306000000
H    -2.512000000    -1.491000000    -3.367000000
C    -0.915000000    -4.403000000    -3.376000000
H     0.090000000    -4.791000000    -3.516000000
O     1.364000000    -2.738000000    -4.157000000
H     0.288000000    -1.624000000    -2.768000000
C     1.512000000     0.555000000    -4.525000000
C     2.616000000    -0.371000000    -4.901000000
H     3.396000000     0.229000000    -5.373000000
H     2.355000000    -1.041000000    -5.723000000
C     3.104000000    -1.187000000    -3.734000000
C     2.436000000    -2.397000000    -3.449000000
C     2.714000000    -3.135000000    -2.283000000
H     2.077000000    -3.954000000    -1.957000000
C     3.725000000    -2.718000000    -1.449000000
O     3.850000000    -3.322000000    -0.205000000
C     3.278000000    -2.678000000     0.933000000
H     2.493000000    -1.974000000     0.623000000
C     2.503000000    -3.680000000     1.871000000
C     2.345000000    -3.340000000     3.259000000
H     2.771000000    -2.420000000     3.650000000
C     1.813000000    -4.762000000     1.318000000
H     1.823000000    -4.940000000     0.245000000
C     1.006000000    -5.501000000     2.153000000
O     0.335000000    -6.606000000     1.689000000
C     0.953000000    -5.248000000     3.532000000
H     0.477000000    -5.884000000     4.274000000
C     1.600000000    -4.112000000     4.037000000
O     1.640000000    -3.966000000     5.432000000
C     1.438000000    -2.730000000     6.023000000
C     0.326000000    -1.881000000     5.750000000
H    -0.427000000    -2.139000000     5.009000000
C     2.319000000    -2.376000000     7.035000000
H     3.129000000    -3.085000000     7.186000000
C     2.268000000    -1.124000000     7.663000000
H     2.973000000    -0.716000000     8.383000000
C     1.179000000    -0.294000000     7.373000000
H     0.945000000     0.581000000     7.975000000
C     0.277000000    -0.663000000     6.411000000
O    -0.819000000     0.221000000     6.189000000
C    -0.744000000     1.349000000     5.418000000
C    -1.663000000     2.392000000     5.621000000
H    -2.522000000     2.302000000     6.280000000
C    -1.559000000     3.579000000     4.924000000
O    -2.344000000     4.666000000     5.152000000
C    -2.925000000     5.302000000     4.076000000
C    -3.564000000     4.561000000     3.115000000
H    -3.720000000     3.488000000     3.183000000
C    -2.517000000     6.636000000     3.884000000
H    -1.928000000     7.155000000     4.636000000
C    -3.101000000     7.304000000     2.754000000
H    -2.947000000     8.369000000     2.600000000
C    -4.047000000     6.666000000     1.994000000
H    -4.661000000     7.268000000     1.328000000
C    -4.244000000     5.299000000     2.130000000
O    -5.085000000     4.640000000     1.239000000
C    -4.657000000     3.936000000     0.140000000
C    -5.555000000     3.108000000    -0.576000000
H    -6.574000000     2.963000000    -0.225000000
C    -5.138000000     2.355000000    -1.661000000
O    -6.073000000     1.610000000    -2.378000000
C    -5.798000000     0.603000000    -3.251000000
C    -5.394000000    -0.679000000    -2.767000000
H    -5.463000000    -0.911000000    -1.707000000
C    -5.801000000     0.812000000    -4.659000000
H    -6.038000000     1.783000000    -5.088000000
C    -5.443000000    -0.160000000    -5.517000000
H    -5.511000000     0.033000000    -6.584000000
C    -5.013000000    -1.415000000    -5.011000000
H    -4.798000000    -2.245000000    -5.679000000
C    -5.061000000    -1.688000000    -3.637000000
O    -4.752000000    -2.939000000    -3.294000000
C    -3.463000000    -3.387000000    -3.225000000
C    -3.217000000    -4.726000000    -2.988000000
H    -4.076000000    -5.355000000    -2.764000000
C    -1.936000000    -5.228000000    -2.989000000
O    -1.667000000    -6.561000000    -2.761000000
C    -0.734000000    -7.032000000    -1.843000000
C     0.018000000    -8.155000000    -2.184000000
H    -0.118000000    -8.633000000    -3.150000000
C     0.857000000    -8.702000000    -1.239000000
H     1.352000000    -9.619000000    -1.546000000
C     0.991000000    -8.208000000     0.017000000
H     1.616000000    -8.674000000     0.774000000
C     0.333000000    -7.074000000     0.378000000
C    -0.607000000    -6.546000000    -0.577000000
H    -1.200000000    -5.714000000    -0.204000000
O    -3.280000000    -5.969000000     2.055000000
H    -3.936000000    -6.665000000     2.064000000
H    -3.693000000    -5.256000000     1.569000000
O    -6.032000000     1.076000000     1.993000000
H    -6.371000000     0.203000000     1.796000000
H    -6.565000000     1.666000000     1.460000000
O    -3.437000000    -1.874000000     6.712000000
H    -3.402000000    -1.395000000     5.884000000
H    -2.761000000    -2.547000000     6.629000000
O    -6.119000000    -5.178000000    -0.527000000
H    -5.341000000    -4.734000000    -0.189000000
H    -6.352000000    -5.806000000     0.156000000
O    -1.690000000    -8.209000000     2.535000000
H    -0.758000000    -8.064000000     2.698000000
H    -2.053000000    -7.331000000     2.421000000
O    -4.656000000    -5.838000000     4.704000000
H    -5.372000000    -5.225000000     4.540000000
H    -4.333000000    -6.068000000     3.832000000
O    -6.388000000    -3.834000000     3.213000000
H    -5.604000000    -3.896000000     2.668000000
H    -6.876000000    -3.096000000     2.848000000
O    -7.033000000    -6.305000000    -2.765000000
H    -6.934000000    -5.871000000    -1.918000000
H    -7.234000000    -5.595000000    -3.375000000
O    -5.531000000    -7.124000000     2.202000000
H    -5.541000000    -8.057000000     1.988000000
H    -6.161000000    -7.035000000     2.917000000
O    -9.048000000    -2.955000000     1.835000000
H    -9.338000000    -2.117000000     2.194000000
H    -8.343000000    -2.725000000     1.230000000
O    -3.831000000    -0.752000000     4.268000000
H    -3.830000000     0.091000000     3.815000000
H    -4.201000000    -1.365000000     3.632000000
O    -2.376000000    -4.239000000     5.629000000
H    -2.121000000    -4.015000000     4.734000000
H    -3.225000000    -4.671000000     5.535000000
O    -3.113000000    -8.854000000    -0.833000000
H    -3.276000000    -9.152000000    -1.728000000
H    -2.775000000    -7.964000000    -0.935000000
O    -8.386000000     0.068000000    -0.654000000
H    -7.991000000    -0.793000000    -0.520000000
H    -7.732000000     0.556000000    -1.154000000
O    -8.394000000    -6.502000000     2.880000000
H    -7.958000000    -5.676000000     3.089000000
H    -9.303000000    -6.368000000     3.148000000
O    -7.070000000    -2.467000000     0.067000000
H    -6.724000000    -3.243000000    -0.373000000
H    -6.432000000    -2.278000000     0.755000000
O    -1.983000000    -3.707000000     3.108000000
H    -2.205000000    -4.504000000     2.626000000
H    -1.798000000    -3.059000000     2.429000000
O    -5.676000000     2.313000000     4.255000000
H    -5.684000000     1.990000000     3.354000000
H    -6.479000000     1.964000000     4.641000000
O    -9.400000000    -2.792000000    -1.627000000
H    -9.179000000    -1.874000000    -1.465000000
H    -8.650000000    -3.136000000    -2.113000000
