201
-1255.96282
C    -3.799000000    -3.869000000     0.010000000
H    -4.152000000    -3.998000000    -1.010000000
C    -3.856000000    -2.683000000     0.726000000
C    -3.512000000    -2.702000000     2.102000000
H    -3.527000000    -1.743000000     2.613000000
C    -4.003000000    -1.354000000    -0.029000000
O    -4.630000000    -1.448000000    -1.354000000
H    -2.970000000    -1.037000000    -0.235000000
O    -4.675000000    -0.418000000     0.867000000
C    -4.310000000     0.897000000     0.907000000
C    -3.777000000     1.366000000     2.061000000
H    -3.728000000     0.720000000     2.934000000
C    -3.227000000     2.692000000     2.156000000
O    -2.475000000     3.059000000     3.254000000
C    -3.279000000     3.482000000     1.040000000
C    -2.637000000     4.870000000     1.094000000
H    -3.163000000     5.574000000     0.446000000
C    -1.095000000     4.842000000     0.719000000
C    -0.755000000     5.052000000    -0.576000000
H    -1.577000000     5.234000000    -1.264000000
H    -2.806000000     5.282000000     2.091000000
C    -3.965000000     3.098000000    -0.105000000
H    -4.037000000     3.769000000    -0.957000000
C    -4.494000000     1.809000000    -0.175000000
C    -5.144000000     1.325000000    -1.437000000
H    -5.606000000     2.129000000    -2.014000000
H    -5.965000000     0.677000000    -1.121000000
C    -4.204000000     0.660000000    -2.407000000
C    -3.497000000     1.375000000    -3.360000000
H    -3.735000000     2.436000000    -3.338000000
C    -4.024000000    -0.742000000    -2.298000000
C    -3.112000000    -1.322000000    -3.217000000
H    -2.896000000    -2.387000000    -3.226000000
C    -2.339000000    -0.586000000    -4.056000000
O    -1.314000000    -1.254000000    -4.775000000
C    -0.014000000    -1.094000000    -4.328000000
C     0.750000000    -2.386000000    -4.407000000
C     2.161000000    -2.364000000    -4.594000000
H     2.719000000    -1.448000000    -4.771000000
C     0.059000000    -3.566000000    -3.979000000
H    -1.027000000    -3.535000000    -3.946000000
O     0.754000000    -0.092000000    -5.062000000
H    -0.038000000    -0.819000000    -3.263000000
C    -2.550000000     0.776000000    -4.150000000
C    -1.671000000     1.544000000    -5.120000000
H    -2.124000000     2.447000000    -5.532000000
H    -1.399000000     1.001000000    -6.028000000
C    -0.370000000     1.926000000    -4.383000000
C    -0.283000000     3.225000000    -3.830000000
H    -1.212000000     3.790000000    -3.835000000
C     0.728000000     1.121000000    -4.407000000
C     1.917000000     1.573000000    -3.811000000
H     2.825000000     0.978000000    -3.857000000
C     2.025000000     2.824000000    -3.202000000
O     3.164000000     3.041000000    -2.420000000
C     3.040000000     2.913000000    -0.921000000
C     4.391000000     2.354000000    -0.447000000
C     4.703000000     1.049000000    -0.866000000
H     4.123000000     0.584000000    -1.659000000
C     4.997000000     2.893000000     0.690000000
H     4.694000000     3.869000000     1.060000000
O     2.817000000     4.210000000    -0.393000000
H     2.225000000     2.239000000    -0.619000000
C     0.868000000     3.612000000    -3.146000000
C     0.971000000     4.966000000    -2.454000000
H     0.426000000     5.670000000    -3.086000000
H     1.997000000     5.338000000    -2.443000000
C     0.549000000     4.942000000    -0.978000000
C     1.511000000     4.572000000    -0.054000000
C     1.121000000     4.321000000     1.203000000
H     1.853000000     3.965000000     1.923000000
C    -0.165000000     4.496000000     1.657000000
O    -0.442000000     4.171000000     2.971000000
C    -1.011000000     2.866000000     3.119000000
H    -0.781000000     2.193000000     2.280000000
C    -0.483000000     2.074000000     4.299000000
C    -1.398000000     1.344000000     5.082000000
H    -2.427000000     1.695000000     5.109000000
C     0.892000000     1.838000000     4.400000000
H     1.552000000     2.287000000     3.662000000
C     1.361000000     0.950000000     5.338000000
O     2.701000000     0.628000000     5.376000000
C     0.455000000     0.236000000     6.104000000
H     0.824000000    -0.593000000     6.702000000
C    -0.871000000     0.468000000     6.006000000
O    -1.679000000    -0.229000000     6.882000000
C    -2.577000000    -1.213000000     6.511000000
C    -2.292000000    -2.048000000     5.453000000
H    -1.310000000    -2.023000000     4.989000000
C    -3.837000000    -1.369000000     7.194000000
H    -4.034000000    -0.698000000     8.026000000
C    -4.800000000    -2.318000000     6.847000000
H    -5.719000000    -2.502000000     7.397000000
C    -4.531000000    -3.032000000     5.638000000
H    -5.183000000    -3.823000000     5.276000000
C    -3.287000000    -2.870000000     4.975000000
O    -2.992000000    -3.880000000     4.122000000
C    -3.201000000    -3.878000000     2.743000000
C    -3.116000000    -5.004000000     2.013000000
H    -2.784000000    -5.899000000     2.532000000
C    -3.371000000    -5.003000000     0.683000000
O    -3.238000000    -6.194000000     0.011000000
C    -2.827000000    -6.251000000    -1.286000000
C    -1.471000000    -5.982000000    -1.562000000
H    -0.777000000    -5.808000000    -0.743000000
C    -3.671000000    -6.577000000    -2.270000000
H    -4.722000000    -6.734000000    -2.041000000
C    -3.206000000    -6.795000000    -3.620000000
H    -3.875000000    -7.294000000    -4.317000000
C    -1.885000000    -6.466000000    -3.880000000
H    -1.543000000    -6.652000000    -4.895000000
C    -1.020000000    -5.970000000    -2.900000000
O     0.328000000    -5.892000000    -3.180000000
C     0.846000000    -4.706000000    -3.743000000
C     2.202000000    -4.664000000    -3.921000000
H     2.857000000    -5.519000000    -3.774000000
C     2.861000000    -3.538000000    -4.395000000
O     4.257000000    -3.506000000    -4.481000000
C     5.096000000    -2.462000000    -4.008000000
C     5.201000000    -2.222000000    -2.623000000
H     4.682000000    -2.803000000    -1.864000000
C     5.924000000    -1.777000000    -4.898000000
H     5.775000000    -1.843000000    -5.972000000
C     6.854000000    -0.876000000    -4.419000000
H     7.400000000    -0.318000000    -5.176000000
C     6.871000000    -0.530000000    -3.066000000
H     7.502000000     0.285000000    -2.720000000
C     6.029000000    -1.177000000    -2.173000000
O     5.987000000    -0.846000000    -0.832000000
C     5.711000000     0.343000000    -0.244000000
C     6.300000000     0.818000000     0.833000000
H     6.937000000     0.153000000     1.411000000
C     5.934000000     2.043000000     1.388000000
O     6.329000000     2.284000000     2.670000000
C     5.384000000     2.445000000     3.704000000
C     5.520000000     3.532000000     4.637000000
H     6.261000000     4.298000000     4.421000000
C     4.812000000     3.593000000     5.779000000
H     4.804000000     4.449000000     6.449000000
C     3.873000000     2.677000000     6.009000000
H     3.274000000     2.763000000     6.913000000
C     3.625000000     1.618000000     5.126000000
C     4.466000000     1.435000000     4.006000000
H     4.451000000     0.565000000     3.354000000
O     2.050000000    -9.942000000     2.571000000
H     2.085000000    -9.040000000     2.253000000
H     1.370000000    -9.932000000     3.245000000
O     3.037000000    -7.145000000     2.351000000
H     2.210000000    -6.718000000     2.124000000
H     3.661000000    -6.425000000     2.441000000
O     6.548000000    -1.624000000     3.891000000
H     6.925000000    -2.479000000     4.096000000
H     5.922000000    -1.463000000     4.597000000
O    -2.516000000    -7.044000000     5.893000000
H    -2.094000000    -6.752000000     5.085000000
H    -3.440000000    -7.137000000     5.660000000
O     2.753000000    -3.530000000     7.306000000
H     3.226000000    -2.748000000     7.023000000
H     2.775000000    -3.491000000     8.262000000
O     4.846000000    -6.128000000     5.281000000
H     4.012000000    -6.364000000     5.687000000
H     4.611000000    -5.853000000     4.394000000
O     0.633000000    -9.248000000    -2.169000000
H     1.275000000    -9.396000000    -2.863000000
H     0.918000000    -8.436000000    -1.748000000
O     0.492000000    -3.763000000     5.677000000
H     0.970000000    -3.702000000     4.850000000
H     1.170000000    -3.913000000     6.336000000
O    -1.378000000    -8.447000000     1.351000000
H    -1.884000000    -8.732000000     0.590000000
H    -0.563000000    -8.105000000     0.983000000
O    -0.529000000    -6.221000000     4.209000000
H    -0.169000000    -6.025000000     3.344000000
H    -0.421000000    -5.409000000     4.703000000
O    -0.378000000    -9.180000000     3.748000000
H    -0.746000000    -9.113000000     2.867000000
H    -0.516000000    -8.314000000     4.132000000
O     4.252000000    -4.811000000     3.078000000
H     3.383000000    -4.451000000     3.258000000
H     4.675000000    -4.151000000     2.528000000
O     6.067000000    -7.911000000     1.027000000
H     5.557000000    -7.112000000     1.156000000
H     5.413000000    -8.607000000     0.973000000
O     1.189000000    -7.322000000     0.266000000
H     1.807000000    -7.057000000    -0.416000000
H     1.137000000    -6.564000000     0.849000000
O     2.556000000    -7.200000000     6.237000000
H     2.536000000    -8.153000000     6.147000000
H     1.676000000    -6.918000000     5.987000000
O    -1.891000000    -5.028000000     7.510000000
H    -1.363000000    -4.418000000     6.994000000
H    -2.177000000    -5.688000000     6.879000000
O     3.002000000    -7.493000000    -1.711000000
H     3.898000000    -7.168000000    -1.630000000
H     3.076000000    -8.258000000    -2.282000000
O     3.634000000    -2.032000000     4.798000000
H     3.080000000    -1.282000000     4.583000000
H     3.109000000    -2.795000000     4.558000000
O     5.950000000    -2.956000000     1.642000000
H     5.987000000    -2.312000000     0.935000000
H     6.178000000    -2.462000000     2.429000000
