201
-1254.74371
C    -1.478000000     3.110000000     3.427000000
H    -1.710000000     3.724000000     2.560000000
C    -0.142000000     2.858000000     3.726000000
C     0.134000000     2.104000000     4.911000000
H     1.123000000     1.700000000     5.107000000
C     0.953000000     3.053000000     2.748000000
O     0.899000000     4.326000000     2.177000000
H     0.802000000     2.282000000     1.978000000
O     2.355000000     2.856000000     3.229000000
C     3.194000000     2.147000000     2.363000000
C     3.487000000     0.828000000     2.669000000
H     3.129000000     0.331000000     3.566000000
C     4.371000000     0.134000000     1.883000000
O     4.428000000    -1.231000000     2.109000000
C     4.913000000     0.705000000     0.744000000
C     5.750000000    -0.175000000    -0.172000000
H     6.442000000     0.478000000    -0.709000000
C     4.822000000    -0.831000000    -1.293000000
C     4.605000000    -0.194000000    -2.520000000
H     5.103000000     0.746000000    -2.746000000
H     6.171000000    -0.880000000     0.548000000
C     4.629000000     2.065000000     0.473000000
H     4.990000000     2.608000000    -0.397000000
C     3.752000000     2.780000000     1.298000000
C     3.510000000     4.238000000     0.990000000
H     4.313000000     4.765000000     0.471000000
H     3.449000000     4.763000000     1.946000000
C     2.223000000     4.445000000     0.186000000
C     2.250000000     4.436000000    -1.211000000
H     3.209000000     4.355000000    -1.717000000
C     0.966000000     4.451000000     0.813000000
C    -0.212000000     4.668000000     0.123000000
H    -1.145000000     4.847000000     0.652000000
C    -0.158000000     4.605000000    -1.294000000
O    -1.422000000     4.456000000    -1.832000000
C    -1.933000000     3.217000000    -2.355000000
C    -3.445000000     3.028000000    -2.119000000
C    -4.099000000     2.074000000    -2.865000000
H    -3.474000000     1.521000000    -3.562000000
C    -4.111000000     3.664000000    -1.106000000
H    -3.580000000     4.249000000    -0.360000000
O    -1.442000000     3.090000000    -3.724000000
H    -1.507000000     2.489000000    -1.649000000
C     1.090000000     4.400000000    -1.976000000
C     1.147000000     4.402000000    -3.464000000
H     2.155000000     4.729000000    -3.726000000
H     0.351000000     5.046000000    -3.843000000
C     0.978000000     2.904000000    -3.898000000
C     2.188000000     2.197000000    -4.269000000
H     3.169000000     2.620000000    -4.070000000
C    -0.281000000     2.355000000    -3.998000000
C    -0.356000000     1.039000000    -4.341000000
H    -1.310000000     0.519000000    -4.362000000
C     0.784000000     0.263000000    -4.566000000
O     0.519000000    -1.065000000    -4.760000000
C     0.812000000    -1.888000000    -3.604000000
C    -0.288000000    -2.898000000    -3.248000000
C    -1.563000000    -2.507000000    -2.820000000
H    -1.895000000    -1.473000000    -2.883000000
C    -0.012000000    -4.295000000    -3.184000000
H     1.036000000    -4.512000000    -3.377000000
O     2.089000000    -2.470000000    -3.799000000
H     0.926000000    -1.224000000    -2.735000000
C     2.075000000     0.811000000    -4.604000000
C     3.282000000    -0.059000000    -4.771000000
H     4.143000000     0.522000000    -5.106000000
H     3.094000000    -0.869000000    -5.479000000
C     3.681000000    -0.756000000    -3.471000000
C     3.107000000    -1.976000000    -3.076000000
C     3.347000000    -2.660000000    -1.870000000
H     2.826000000    -3.595000000    -1.679000000
C     4.275000000    -2.076000000    -1.041000000
O     4.333000000    -2.664000000     0.195000000
C     3.600000000    -2.051000000     1.306000000
H     2.797000000    -1.438000000     0.870000000
C     2.828000000    -3.103000000     2.029000000
C     2.048000000    -2.667000000     3.132000000
H     2.109000000    -1.624000000     3.433000000
C     2.784000000    -4.423000000     1.549000000
H     3.392000000    -4.742000000     0.707000000
C     2.014000000    -5.288000000     2.251000000
O     1.781000000    -6.601000000     1.862000000
C     1.195000000    -4.860000000     3.336000000
H     0.638000000    -5.679000000     3.783000000
C     1.181000000    -3.558000000     3.783000000
O     0.297000000    -3.143000000     4.817000000
C     0.580000000    -2.215000000     5.784000000
C    -0.078000000    -0.993000000     5.853000000
H    -0.863000000    -0.741000000     5.145000000
C     1.558000000    -2.461000000     6.713000000
H     2.084000000    -3.409000000     6.639000000
C     1.761000000    -1.554000000     7.729000000
H     2.552000000    -1.790000000     8.436000000
C     1.095000000    -0.356000000     7.844000000
H     1.387000000     0.396000000     8.573000000
C     0.255000000    -0.020000000     6.838000000
O    -0.484000000     1.164000000     6.903000000
C    -0.845000000     1.875000000     5.785000000
C    -2.131000000     2.235000000     5.535000000
H    -2.893000000     1.872000000     6.220000000
C    -2.473000000     2.918000000     4.412000000
O    -3.813000000     3.075000000     4.173000000
C    -4.348000000     3.986000000     3.319000000
C    -4.822000000     3.536000000     2.080000000
H    -4.735000000     2.494000000     1.785000000
C    -4.450000000     5.307000000     3.770000000
H    -4.043000000     5.535000000     4.752000000
C    -5.062000000     6.200000000     2.938000000
H    -5.067000000     7.251000000     3.217000000
C    -5.799000000     5.753000000     1.799000000
H    -6.454000000     6.462000000     1.299000000
C    -5.656000000     4.394000000     1.371000000
O    -6.200000000     4.093000000     0.148000000
C    -5.472000000     3.429000000    -0.885000000
C    -6.161000000     2.561000000    -1.713000000
H    -7.231000000     2.433000000    -1.572000000
C    -5.507000000     1.908000000    -2.783000000
O    -6.180000000     1.012000000    -3.559000000
C    -5.642000000    -0.223000000    -3.852000000
C    -4.984000000    -1.027000000    -2.907000000
H    -4.829000000    -0.690000000    -1.886000000
C    -5.958000000    -0.831000000    -5.099000000
H    -6.476000000    -0.320000000    -5.906000000
C    -5.486000000    -2.089000000    -5.462000000
H    -5.658000000    -2.511000000    -6.450000000
C    -4.663000000    -2.782000000    -4.581000000
H    -4.187000000    -3.734000000    -4.802000000
C    -4.483000000    -2.265000000    -3.246000000
O    -3.853000000    -3.084000000    -2.269000000
C    -2.481000000    -3.421000000    -2.410000000
C    -2.152000000    -4.725000000    -2.239000000
H    -2.977000000    -5.385000000    -1.984000000
C    -0.953000000    -5.203000000    -2.673000000
O    -0.648000000    -6.536000000    -2.299000000
C     0.455000000    -6.896000000    -1.569000000
C     1.327000000    -7.856000000    -2.081000000
H     1.121000000    -8.289000000    -3.056000000
C     2.343000000    -8.425000000    -1.264000000
H     2.969000000    -9.215000000    -1.672000000
C     2.552000000    -7.935000000     0.008000000
H     3.392000000    -8.339000000     0.568000000
C     1.708000000    -6.942000000     0.517000000
C     0.695000000    -6.394000000    -0.282000000
H    -0.096000000    -5.825000000     0.200000000
O    -4.548000000    -7.226000000     1.295000000
H    -5.270000000    -7.377000000     0.685000000
H    -3.795000000    -7.651000000     0.885000000
O    -6.421000000    -1.258000000     5.191000000
H    -6.780000000    -0.435000000     5.523000000
H    -5.604000000    -1.006000000     4.761000000
O    -2.130000000    -5.513000000     2.821000000
H    -3.012000000    -5.485000000     3.192000000
H    -2.181000000    -4.962000000     2.039000000
O    -5.613000000     0.002000000     2.159000000
H    -4.923000000    -0.662000000     2.157000000
H    -6.316000000    -0.382000000     1.635000000
O    -5.014000000    -4.560000000     0.050000000
H    -5.118000000    -5.476000000     0.311000000
H    -4.117000000    -4.340000000     0.302000000
O    -6.998000000    -4.004000000     5.534000000
H    -6.825000000    -3.919000000     4.597000000
H    -6.708000000    -3.171000000     5.907000000
O    -1.258000000    -8.152000000     2.686000000
H    -1.199000000    -7.198000000     2.634000000
H    -2.024000000    -8.315000000     3.237000000
O    -5.720000000    -3.546000000     3.038000000
H    -5.198000000    -2.754000000     2.905000000
H    -5.592000000    -4.055000000     2.237000000
O    -6.100000000    -5.209000000    -2.702000000
H    -6.987000000    -4.905000000    -2.892000000
H    -5.704000000    -4.495000000    -2.202000000
O    -8.565000000    -3.776000000     1.131000000
H    -8.025000000    -3.340000000     0.472000000
H    -8.482000000    -3.226000000     1.910000000
O    -2.332000000    -3.053000000     4.404000000
H    -2.453000000    -3.356000000     3.505000000
H    -1.382000000    -3.023000000     4.521000000
O    -4.253000000    -2.760000000     6.481000000
H    -3.482000000    -3.159000000     6.077000000
H    -4.772000000    -2.441000000     5.743000000
O    -2.030000000    -6.742000000     5.672000000
H    -2.150000000    -7.593000000     5.251000000
H    -2.207000000    -6.104000000     4.981000000
O    -2.494000000    -8.308000000    -0.060000000
H    -1.744000000    -7.776000000     0.208000000
H    -2.156000000    -9.203000000    -0.084000000
O    -8.090000000    -0.302000000     0.655000000
H    -7.886000000    -1.128000000     0.216000000
H    -7.530000000     0.343000000     0.222000000
O    -3.722000000    -0.541000000     4.533000000
H    -3.079000000     0.165000000     4.461000000
H    -3.458000000    -1.175000000     3.867000000
O    -7.101000000    -2.517000000    -0.631000000
H    -7.378000000    -2.806000000    -1.501000000
H    -6.182000000    -2.779000000    -0.573000000
O    -4.614000000    -5.915000000     3.797000000
H    -5.074000000    -6.489000000     3.185000000
H    -5.021000000    -5.058000000     3.675000000
O    -6.734000000     1.885000000     3.638000000
H    -6.031000000     1.294000000     3.369000000
H    -7.531000000     1.481000000     3.295000000
