201
-1255.56794
C    -1.297000000     4.014000000     3.966000000
H    -1.556000000     4.861000000     3.336000000
C    -0.232000000     3.143000000     3.690000000
C    -0.065000000     2.017000000     4.504000000
H     0.700000000     1.261000000     4.346000000
C     0.739000000     3.315000000     2.555000000
O     0.580000000     4.696000000     2.108000000
H     0.484000000     2.572000000     1.785000000
O     2.083000000     3.191000000     3.002000000
C     2.963000000     2.583000000     2.085000000
C     3.390000000     1.252000000     2.425000000
H     3.105000000     0.897000000     3.412000000
C     4.226000000     0.562000000     1.529000000
O     4.585000000    -0.737000000     1.728000000
C     4.721000000     1.254000000     0.389000000
C     5.641000000     0.594000000    -0.637000000
H     6.288000000     1.324000000    -1.126000000
C     4.894000000    -0.328000000    -1.661000000
C     4.363000000     0.242000000    -2.800000000
H     4.453000000     1.308000000    -2.993000000
H     6.347000000    -0.083000000    -0.150000000
C     4.283000000     2.505000000     0.083000000
H     4.652000000     2.931000000    -0.846000000
C     3.366000000     3.221000000     0.906000000
C     3.003000000     4.596000000     0.507000000
H     3.660000000     5.030000000    -0.249000000
H     3.113000000     5.330000000     1.309000000
C     1.586000000     4.731000000    -0.069000000
C     1.395000000     4.588000000    -1.455000000
H     2.262000000     4.602000000    -2.111000000
C     0.440000000     4.798000000     0.736000000
C    -0.827000000     4.897000000     0.084000000
H    -1.749000000     4.790000000     0.650000000
C    -1.025000000     4.679000000    -1.298000000
O    -2.234000000     4.243000000    -1.765000000
C    -2.405000000     2.783000000    -1.884000000
C    -3.658000000     2.249000000    -1.266000000
C    -3.987000000     0.905000000    -1.559000000
H    -3.407000000     0.389000000    -2.321000000
C    -4.261000000     2.846000000    -0.080000000
H    -3.934000000     3.801000000     0.322000000
O    -2.217000000     2.334000000    -3.285000000
H    -1.550000000     2.360000000    -1.335000000
C     0.101000000     4.533000000    -2.064000000
C    -0.011000000     4.196000000    -3.542000000
H     0.755000000     4.760000000    -4.078000000
H    -0.952000000     4.579000000    -3.941000000
C     0.101000000     2.729000000    -3.825000000
C     1.327000000     2.213000000    -4.140000000
H     2.110000000     2.960000000    -4.236000000
C    -0.984000000     1.908000000    -3.753000000
C    -0.904000000     0.569000000    -4.083000000
H    -1.774000000    -0.077000000    -4.166000000
C     0.316000000     0.005000000    -4.427000000
O     0.290000000    -1.276000000    -4.694000000
C     0.840000000    -2.165000000    -3.697000000
C    -0.100000000    -3.335000000    -3.488000000
C    -1.493000000    -3.246000000    -3.788000000
H    -1.926000000    -2.397000000    -4.311000000
C     0.264000000    -4.502000000    -2.852000000
H     1.315000000    -4.601000000    -2.591000000
O     2.238000000    -2.485000000    -4.037000000
H     0.954000000    -1.655000000    -2.729000000
C     1.454000000     0.808000000    -4.395000000
C     2.796000000     0.308000000    -4.821000000
H     3.345000000     1.149000000    -5.250000000
H     2.547000000    -0.324000000    -5.676000000
C     3.483000000    -0.412000000    -3.675000000
C     3.200000000    -1.749000000    -3.393000000
C     3.862000000    -2.381000000    -2.322000000
H     3.631000000    -3.423000000    -2.118000000
C     4.550000000    -1.680000000    -1.421000000
O     4.793000000    -2.267000000    -0.177000000
C     3.912000000    -1.763000000     0.913000000
H     3.075000000    -1.202000000     0.471000000
C     3.317000000    -2.910000000     1.754000000
C     2.527000000    -2.563000000     2.863000000
H     2.296000000    -1.511000000     3.012000000
C     3.302000000    -4.250000000     1.353000000
H     3.745000000    -4.472000000     0.385000000
C     2.642000000    -5.221000000     2.130000000
O     2.624000000    -6.551000000     1.746000000
C     1.987000000    -4.837000000     3.269000000
H     1.650000000    -5.677000000     3.870000000
C     1.906000000    -3.535000000     3.613000000
O     1.115000000    -3.264000000     4.730000000
C     1.220000000    -2.066000000     5.438000000
C     0.155000000    -1.215000000     5.738000000
H    -0.842000000    -1.315000000     5.316000000
C     2.440000000    -1.748000000     5.996000000
H     3.282000000    -2.366000000     5.695000000
C     2.697000000    -0.564000000     6.747000000
H     3.709000000    -0.270000000     7.013000000
C     1.594000000     0.243000000     6.949000000
H     1.683000000     1.182000000     7.491000000
C     0.387000000    -0.115000000     6.470000000
O    -0.668000000     0.757000000     6.584000000
C    -0.923000000     1.740000000     5.611000000
C    -2.003000000     2.657000000     5.831000000
H    -2.625000000     2.527000000     6.712000000
C    -2.262000000     3.685000000     4.958000000
O    -3.336000000     4.519000000     5.106000000
C    -4.235000000     4.742000000     4.012000000
C    -4.608000000     3.644000000     3.186000000
H    -4.223000000     2.646000000     3.378000000
C    -4.734000000     6.046000000     3.761000000
H    -4.341000000     6.898000000     4.311000000
C    -5.596000000     6.186000000     2.721000000
H    -5.931000000     7.157000000     2.364000000
C    -6.141000000     5.111000000     2.059000000
H    -6.930000000     5.371000000     1.358000000
C    -5.585000000     3.831000000     2.263000000
O    -5.994000000     2.775000000     1.547000000
C    -5.254000000     2.149000000     0.563000000
C    -5.716000000     0.880000000     0.159000000
H    -6.456000000     0.365000000     0.766000000
C    -5.067000000     0.315000000    -0.896000000
O    -5.594000000    -0.879000000    -1.234000000
C    -5.451000000    -1.420000000    -2.488000000
C    -4.678000000    -2.594000000    -2.653000000
H    -4.198000000    -2.899000000    -1.727000000
C    -6.184000000    -0.985000000    -3.537000000
H    -6.780000000    -0.095000000    -3.354000000
C    -6.068000000    -1.524000000    -4.807000000
H    -6.724000000    -1.036000000    -5.523000000
C    -5.198000000    -2.598000000    -4.981000000
H    -5.116000000    -3.041000000    -5.970000000
C    -4.475000000    -3.171000000    -3.926000000
O    -3.637000000    -4.273000000    -4.080000000
C    -2.325000000    -4.336000000    -3.636000000
C    -1.920000000    -5.526000000    -3.017000000
H    -2.495000000    -6.441000000    -2.908000000
C    -0.635000000    -5.569000000    -2.558000000
O    -0.184000000    -6.793000000    -2.146000000
C     1.101000000    -7.030000000    -1.600000000
C     2.183000000    -7.661000000    -2.197000000
H     2.095000000    -7.984000000    -3.231000000
C     3.377000000    -7.910000000    -1.487000000
H     4.206000000    -8.415000000    -1.977000000
C     3.500000000    -7.502000000    -0.188000000
H     4.409000000    -7.697000000     0.376000000
C     2.391000000    -6.957000000     0.449000000
C     1.196000000    -6.695000000    -0.202000000
H     0.412000000    -6.198000000     0.365000000
O    -1.395000000    -8.081000000     0.281000000
H    -0.830000000    -8.839000000     0.134000000
H    -1.885000000    -7.985000000    -0.536000000
O    -2.104000000    -5.916000000     4.333000000
H    -1.600000000    -6.584000000     3.867000000
H    -2.015000000    -5.131000000     3.794000000
O    -5.832000000    -5.106000000     1.356000000
H    -4.931000000    -5.426000000     1.405000000
H    -5.821000000    -4.285000000     1.847000000
O    -0.533000000    -7.790000000     2.970000000
H    -1.002000000    -7.811000000     2.136000000
H     0.341000000    -8.120000000     2.762000000
O    -5.061000000    -6.917000000     4.553000000
H    -4.579000000    -6.954000000     5.379000000
H    -4.584000000    -7.508000000     3.970000000
O    -7.773000000    -2.040000000     1.405000000
H    -6.856000000    -2.113000000     1.669000000
H    -7.800000000    -2.420000000     0.527000000
O    -3.202000000    -6.341000000     1.564000000
H    -2.571000000    -6.928000000     1.147000000
H    -2.719000000    -5.525000000     1.695000000
O    -3.223000000    -7.077000000     6.504000000
H    -2.522000000    -7.606000000     6.886000000
H    -2.786000000    -6.542000000     5.842000000
O    -7.673000000    -3.993000000     4.177000000
H    -7.953000000    -3.088000000     4.314000000
H    -6.737000000    -3.987000000     4.376000000
O    -6.950000000    -1.249000000     4.621000000
H    -6.017000000    -1.292000000     4.409000000
H    -7.250000000    -0.435000000     4.218000000
O    -4.998000000    -4.234000000     3.987000000
H    -5.098000000    -5.145000000     4.263000000
H    -4.068000000    -4.147000000     3.779000000
O    -3.861000000    -9.326000000     2.203000000
H    -4.639000000    -9.686000000     1.777000000
H    -3.637000000    -8.556000000     1.681000000
O    -5.757000000    -7.871000000     0.629000000
H    -5.873000000    -6.943000000     0.836000000
H    -6.639000000    -8.240000000     0.685000000
O    -1.584000000    -4.125000000     6.815000000
H    -0.723000000    -4.428000000     7.104000000
H    -1.702000000    -4.526000000     5.954000000
O    -4.623000000     1.074000000     6.218000000
H    -4.409000000     0.541000000     5.453000000
H    -4.291000000     0.570000000     6.961000000
O    -3.059000000    -2.017000000     7.482000000
H    -3.683000000    -2.691000000     7.750000000
H    -2.286000000    -2.504000000     7.197000000
O     0.661000000    -5.826000000     7.152000000
H     1.531000000    -5.759000000     7.546000000
H     0.766000000    -6.466000000     6.448000000
O    -5.221000000    -2.387000000     1.847000000
H    -4.777000000    -2.430000000     2.694000000
H    -4.511000000    -2.324000000     1.208000000
O    -4.170000000    -1.383000000     5.102000000
H    -3.691000000    -1.679000000     4.328000000
H    -3.746000000    -1.833000000     5.833000000
