201
-1247.19190
C    -2.141000000     2.393000000     3.788000000
H    -2.443000000     2.980000000     2.924000000
C    -0.803000000     2.097000000     3.981000000
C    -0.436000000     1.184000000     4.937000000
H     0.590000000     0.826000000     4.914000000
C     0.283000000     2.645000000     3.105000000
O    -0.041000000     4.019000000     2.663000000
H     0.295000000     2.013000000     2.206000000
O     1.567000000     2.591000000     3.774000000
C     2.590000000     2.171000000     3.017000000
C     2.979000000     0.836000000     3.140000000
H     2.663000000     0.237000000     3.991000000
C     3.905000000     0.307000000     2.324000000
O     4.257000000    -1.049000000     2.461000000
C     4.465000000     1.070000000     1.352000000
C     5.434000000     0.425000000     0.330000000
H     6.240000000     1.108000000     0.051000000
C     4.696000000    -0.194000000    -0.809000000
C     4.409000000     0.555000000    -1.935000000
H     4.661000000     1.612000000    -1.914000000
H     5.955000000    -0.337000000     0.912000000
C     4.158000000     2.434000000     1.256000000
H     4.683000000     2.946000000     0.453000000
C     3.165000000     3.001000000     2.010000000
C     2.737000000     4.422000000     1.753000000
H     3.602000000     4.965000000     1.366000000
H     2.462000000     4.805000000     2.738000000
C     1.502000000     4.479000000     0.876000000
C     1.674000000     4.671000000    -0.521000000
H     2.699000000     4.808000000    -0.854000000
C     0.179000000     4.317000000     1.373000000
C    -0.929000000     4.370000000     0.513000000
H    -1.911000000     4.267000000     0.969000000
C    -0.786000000     4.593000000    -0.848000000
O    -1.956000000     4.513000000    -1.638000000
C    -2.180000000     3.195000000    -2.166000000
C    -3.579000000     2.675000000    -1.983000000
C    -4.024000000     1.651000000    -2.711000000
H    -3.363000000     1.190000000    -3.440000000
C    -4.334000000     3.227000000    -1.017000000
H    -3.981000000     4.065000000    -0.422000000
O    -1.728000000     3.090000000    -3.598000000
H    -1.618000000     2.458000000    -1.574000000
C     0.511000000     4.665000000    -1.355000000
C     0.675000000     4.791000000    -2.823000000
H     1.615000000     5.329000000    -2.962000000
H    -0.113000000     5.384000000    -3.292000000
C     0.765000000     3.465000000    -3.601000000
C     2.011000000     2.852000000    -3.867000000
H     2.916000000     3.407000000    -3.636000000
C    -0.436000000     2.701000000    -3.884000000
C    -0.332000000     1.446000000    -4.456000000
H    -1.282000000     0.929000000    -4.561000000
C     0.921000000     0.782000000    -4.601000000
O     0.892000000    -0.529000000    -4.964000000
C     1.114000000    -1.502000000    -3.880000000
C     0.104000000    -2.694000000    -4.060000000
C    -1.169000000    -2.454000000    -4.613000000
H    -1.559000000    -1.526000000    -5.021000000
C     0.304000000    -3.886000000    -3.367000000
H     1.161000000    -3.932000000    -2.701000000
O     2.525000000    -1.919000000    -3.864000000
H     0.866000000    -1.140000000    -2.871000000
C     2.042000000     1.515000000    -4.223000000
C     3.405000000     0.780000000    -4.282000000
H     4.223000000     1.433000000    -4.594000000
H     3.367000000     0.119000000    -5.151000000
C     3.773000000    -0.007000000    -3.035000000
C     3.379000000    -1.338000000    -2.957000000
C     3.592000000    -2.116000000    -1.816000000
H     3.204000000    -3.122000000    -1.682000000
C     4.294000000    -1.548000000    -0.727000000
O     4.296000000    -2.320000000     0.403000000
C     3.508000000    -1.894000000     1.531000000
H     2.586000000    -1.418000000     1.165000000
C     2.840000000    -3.050000000     2.234000000
C     2.524000000    -3.016000000     3.627000000
H     2.947000000    -2.153000000     4.135000000
C     2.595000000    -4.232000000     1.539000000
H     2.899000000    -4.296000000     0.497000000
C     2.102000000    -5.349000000     2.165000000
O     1.871000000    -6.526000000     1.439000000
C     1.795000000    -5.251000000     3.492000000
H     1.436000000    -6.139000000     4.006000000
C     2.007000000    -4.102000000     4.255000000
O     1.725000000    -4.015000000     5.644000000
C     1.537000000    -2.844000000     6.356000000
C     0.421000000    -2.059000000     6.240000000
H    -0.402000000    -2.439000000     5.639000000
C     2.635000000    -2.378000000     7.064000000
H     3.590000000    -2.885000000     7.176000000
C     2.493000000    -1.120000000     7.760000000
H     3.336000000    -0.756000000     8.342000000
C     1.301000000    -0.382000000     7.719000000
H     1.145000000     0.422000000     8.434000000
C     0.254000000    -0.855000000     6.965000000
O    -0.971000000    -0.274000000     6.872000000
C    -1.379000000     0.599000000     5.850000000
C    -2.711000000     0.969000000     5.676000000
H    -3.427000000     0.351000000     6.213000000
C    -3.134000000     1.869000000     4.681000000
O    -4.479000000     1.990000000     4.458000000
C    -4.963000000     2.939000000     3.546000000
C    -5.463000000     2.535000000     2.290000000
H    -5.678000000     1.507000000     2.009000000
C    -4.957000000     4.242000000     3.923000000
H    -4.483000000     4.353000000     4.894000000
C    -5.392000000     5.259000000     3.091000000
H    -5.326000000     6.312000000     3.352000000
C    -5.816000000     4.919000000     1.827000000
H    -6.082000000     5.700000000     1.120000000
C    -5.957000000     3.524000000     1.413000000
O    -6.410000000     3.273000000     0.220000000
C    -5.569000000     2.722000000    -0.757000000
C    -6.018000000     1.664000000    -1.463000000
H    -6.933000000     1.133000000    -1.212000000
C    -5.241000000     1.057000000    -2.441000000
O    -5.675000000    -0.104000000    -2.976000000
C    -5.139000000    -0.624000000    -4.194000000
C    -4.527000000    -1.836000000    -4.285000000
H    -4.492000000    -2.426000000    -3.373000000
C    -5.098000000     0.235000000    -5.290000000
H    -5.417000000     1.269000000    -5.191000000
C    -4.494000000    -0.186000000    -6.473000000
H    -4.452000000     0.432000000    -7.366000000
C    -3.930000000    -1.447000000    -6.590000000
H    -3.388000000    -1.722000000    -7.491000000
C    -3.907000000    -2.303000000    -5.478000000
O    -3.216000000    -3.500000000    -5.491000000
C    -1.995000000    -3.637000000    -4.789000000
C    -1.671000000    -4.880000000    -4.255000000
H    -2.353000000    -5.726000000    -4.289000000
C    -0.503000000    -4.990000000    -3.493000000
O    -0.412000000    -6.162000000    -2.693000000
C     0.719000000    -6.553000000    -2.052000000
C     1.935000000    -6.925000000    -2.744000000
H     1.887000000    -7.146000000    -3.807000000
C     3.055000000    -7.294000000    -2.014000000
H     3.928000000    -7.714000000    -2.507000000
C     3.121000000    -7.164000000    -0.598000000
H     4.059000000    -7.396000000    -0.099000000
C     1.939000000    -6.654000000     0.036000000
C     0.740000000    -6.456000000    -0.665000000
H    -0.126000000    -6.146000000    -0.085000000
O    -1.279000000    -8.912000000     1.465000000
H    -1.395000000    -7.965000000     1.539000000
H    -0.718000000    -9.025000000     0.698000000
O    -1.246000000    -3.837000000     2.622000000
H    -0.354000000    -4.137000000     2.450000000
H    -1.610000000    -3.659000000     1.754000000
O    -7.725000000    -4.210000000     2.709000000
H    -6.840000000    -4.299000000     2.357000000
H    -7.601000000    -3.804000000     3.567000000
O    -4.455000000    -6.520000000     4.076000000
H    -5.254000000    -6.303000000     4.557000000
H    -4.442000000    -7.477000000     4.052000000
O    -5.546000000    -5.330000000    -3.521000000
H    -5.374000000    -6.123000000    -3.013000000
H    -5.340000000    -4.613000000    -2.921000000
O    -6.922000000    -1.269000000     0.301000000
H    -7.386000000    -2.106000000     0.330000000
H    -5.997000000    -1.510000000     0.249000000
O    -4.716000000    -1.416000000     3.524000000
H    -3.870000000    -1.412000000     3.971000000
H    -4.496000000    -1.386000000     2.593000000
O    -2.743000000    -6.441000000     1.584000000
H    -3.295000000    -6.268000000     2.346000000
H    -2.907000000    -5.704000000     0.997000000
O    -6.006000000    -3.588000000     4.666000000
H    -5.205000000    -4.093000000     4.522000000
H    -5.879000000    -2.789000000     4.155000000
O    -8.477000000     0.153000000     1.760000000
H    -7.881000000    -0.362000000     1.216000000
H    -8.535000000     1.000000000     1.317000000
O    -8.589000000    -3.154000000    -1.662000000
H    -8.649000000    -3.839000000    -0.995000000
H    -7.656000000    -2.949000000    -1.712000000
O    -5.469000000    -4.843000000     1.445000000
H    -4.889000000    -4.115000000     1.221000000
H    -5.317000000    -5.491000000     0.757000000
O    -3.895000000    -7.881000000    -0.438000000
H    -3.211000000    -7.452000000     0.077000000
H    -3.425000000    -8.298000000    -1.160000000
O    -6.269000000    -6.656000000    -1.065000000
H    -5.538000000    -7.250000000    -0.896000000
H    -6.932000000    -6.901000000    -0.419000000
O    -2.435000000    -4.821000000     4.866000000
H    -2.016000000    -4.701000000     4.014000000
H    -3.179000000    -5.396000000     4.688000000
O    -3.091000000    -2.312000000     5.930000000
H    -2.540000000    -1.999000000     6.648000000
H    -2.741000000    -3.178000000     5.720000000
O    -5.844000000    -3.650000000    -1.296000000
H    -5.237000000    -3.352000000    -0.619000000
H    -6.033000000    -4.559000000    -1.064000000
O    -7.466000000     0.085000000     4.182000000
H    -6.554000000    -0.195000000     4.105000000
H    -7.826000000    -0.027000000     3.303000000
O    -8.266000000    -0.692000000    -2.853000000
H    -7.341000000    -0.801000000    -2.633000000
H    -8.718000000    -1.342000000    -2.314000000
