201
-1254.13761
C    -1.833000000     2.652000000     3.522000000
H    -2.043000000     3.060000000     2.537000000
C    -0.469000000     2.562000000     3.878000000
C    -0.139000000     2.032000000     5.096000000
H     0.829000000     2.172000000     5.569000000
C     0.602000000     2.987000000     2.905000000
O     0.183000000     4.195000000     2.211000000
H     0.667000000     2.284000000     2.062000000
O     1.859000000     3.283000000     3.413000000
C     2.990000000     2.727000000     2.812000000
C     3.414000000     1.465000000     3.241000000
H     3.051000000     1.033000000     4.170000000
C     4.177000000     0.668000000     2.362000000
O     4.374000000    -0.613000000     2.808000000
C     4.723000000     1.161000000     1.151000000
C     5.716000000     0.370000000     0.309000000
H     6.331000000     1.113000000    -0.203000000
C     4.943000000    -0.506000000    -0.720000000
C     4.691000000     0.005000000    -1.985000000
H     5.121000000     0.967000000    -2.254000000
H     6.305000000    -0.263000000     0.976000000
C     4.442000000     2.471000000     0.785000000
H     4.875000000     2.798000000    -0.157000000
C     3.494000000     3.254000000     1.573000000
C     2.939000000     4.601000000     1.173000000
H     3.657000000     5.157000000     0.566000000
H     2.704000000     5.156000000     2.083000000
C     1.714000000     4.470000000     0.281000000
C     1.776000000     4.654000000    -1.049000000
H     2.676000000     4.888000000    -1.612000000
C     0.485000000     4.335000000     0.856000000
C    -0.680000000     4.280000000     0.172000000
H    -1.644000000     4.253000000     0.674000000
C    -0.581000000     4.267000000    -1.239000000
O    -1.771000000     4.057000000    -1.961000000
C    -2.068000000     2.717000000    -2.502000000
C    -3.549000000     2.389000000    -2.446000000
C    -4.087000000     1.569000000    -3.426000000
H    -3.518000000     1.202000000    -4.276000000
C    -4.385000000     2.791000000    -1.409000000
H    -3.992000000     3.442000000    -0.633000000
O    -1.506000000     2.634000000    -3.814000000
H    -1.557000000     1.997000000    -1.846000000
C     0.641000000     4.507000000    -1.878000000
C     0.756000000     4.443000000    -3.394000000
H     1.695000000     4.951000000    -3.621000000
H     0.001000000     5.078000000    -3.863000000
C     0.886000000     2.955000000    -3.780000000
C     2.162000000     2.367000000    -3.973000000
H     3.059000000     2.977000000    -3.905000000
C    -0.242000000     2.121000000    -3.961000000
C    -0.173000000     0.771000000    -4.292000000
H    -1.090000000     0.196000000    -4.396000000
C     1.044000000     0.232000000    -4.500000000
O     1.039000000    -1.120000000    -4.770000000
C     0.923000000    -1.863000000    -3.538000000
C    -0.090000000    -2.973000000    -3.574000000
C    -1.245000000    -2.882000000    -4.398000000
H    -1.381000000    -2.034000000    -5.064000000
C     0.086000000    -4.121000000    -2.797000000
H     0.974000000    -4.138000000    -2.170000000
O     2.259000000    -2.398000000    -3.272000000
H     0.612000000    -1.209000000    -2.710000000
C     2.232000000     0.954000000    -4.216000000
C     3.538000000     0.202000000    -4.264000000
H     4.282000000     0.947000000    -4.552000000
H     3.510000000    -0.478000000    -5.118000000
C     3.841000000    -0.543000000    -2.939000000
C     3.232000000    -1.730000000    -2.529000000
C     3.369000000    -2.244000000    -1.251000000
H     2.821000000    -3.137000000    -0.960000000
C     4.284000000    -1.664000000    -0.354000000
O     4.391000000    -2.156000000     0.931000000
C     3.527000000    -1.532000000     1.924000000
H     2.718000000    -0.878000000     1.566000000
C     2.923000000    -2.682000000     2.777000000
C     2.646000000    -2.566000000     4.131000000
H     2.912000000    -1.659000000     4.668000000
C     2.679000000    -3.953000000     2.176000000
H     2.977000000    -4.183000000     1.156000000
C     1.918000000    -4.911000000     2.866000000
O     1.794000000    -6.183000000     2.330000000
C     1.508000000    -4.716000000     4.174000000
H     0.755000000    -5.342000000     4.644000000
C     1.919000000    -3.540000000     4.798000000
O     1.635000000    -3.403000000     6.097000000
C     1.573000000    -2.172000000     6.693000000
C     0.435000000    -1.389000000     6.479000000
H    -0.321000000    -1.781000000     5.803000000
C     2.486000000    -1.802000000     7.683000000
H     3.363000000    -2.370000000     7.982000000
C     2.277000000    -0.622000000     8.443000000
H     3.006000000    -0.376000000     9.211000000
C     1.146000000     0.119000000     8.239000000
H     0.790000000     0.942000000     8.852000000
C     0.265000000    -0.218000000     7.183000000
O    -0.821000000     0.618000000     6.965000000
C    -1.128000000     1.427000000     5.916000000
C    -2.507000000     1.470000000     5.504000000
H    -3.342000000     0.964000000     5.983000000
C    -2.810000000     2.116000000     4.383000000
O    -4.135000000     2.095000000     3.962000000
C    -4.607000000     2.970000000     2.995000000
C    -5.186000000     2.486000000     1.801000000
H    -5.366000000     1.426000000     1.643000000
C    -4.655000000     4.370000000     3.238000000
H    -4.227000000     4.870000000     4.103000000
C    -5.182000000     5.235000000     2.279000000
H    -5.136000000     6.302000000     2.482000000
C    -5.818000000     4.771000000     1.113000000
H    -6.355000000     5.312000000     0.339000000
C    -5.831000000     3.388000000     0.911000000
O    -6.437000000     2.854000000    -0.222000000
C    -5.712000000     2.409000000    -1.296000000
C    -6.262000000     1.607000000    -2.319000000
H    -7.260000000     1.177000000    -2.294000000
C    -5.412000000     1.135000000    -3.349000000
O    -5.962000000     0.201000000    -4.163000000
C    -5.304000000    -0.660000000    -5.040000000
C    -4.713000000    -1.725000000    -4.437000000
H    -4.716000000    -1.746000000    -3.350000000
C    -5.402000000    -0.446000000    -6.337000000
H    -6.005000000     0.380000000    -6.706000000
C    -4.889000000    -1.434000000    -7.212000000
H    -5.104000000    -1.210000000    -8.254000000
C    -4.251000000    -2.504000000    -6.714000000
H    -4.026000000    -3.388000000    -7.306000000
C    -4.170000000    -2.681000000    -5.321000000
O    -3.498000000    -3.777000000    -4.813000000
C    -2.309000000    -3.807000000    -4.248000000
C    -2.003000000    -4.934000000    -3.473000000
H    -2.679000000    -5.784000000    -3.425000000
C    -0.874000000    -5.070000000    -2.648000000
O    -0.801000000    -6.139000000    -1.767000000
C     0.390000000    -6.376000000    -1.083000000
C     1.490000000    -6.887000000    -1.798000000
H     1.349000000    -7.225000000    -2.821000000
C     2.714000000    -7.176000000    -1.124000000
H     3.586000000    -7.625000000    -1.591000000
C     2.717000000    -6.951000000     0.272000000
H     3.628000000    -7.257000000     0.781000000
C     1.641000000    -6.448000000     0.973000000
C     0.491000000    -6.162000000     0.311000000
H    -0.352000000    -5.676000000     0.794000000
O    -1.490000000    -4.400000000     2.623000000
H    -2.291000000    -4.178000000     2.149000000
H    -1.747000000    -4.394000000     3.545000000
O    -6.589000000    -6.892000000     1.984000000
H    -7.254000000    -6.477000000     1.435000000
H    -5.902000000    -7.154000000     1.372000000
O    -2.465000000    -4.380000000     5.220000000
H    -2.603000000    -4.549000000     6.152000000
H    -2.774000000    -3.483000000     5.091000000
O    -5.037000000    -8.051000000     0.101000000
H    -4.661000000    -8.833000000    -0.303000000
H    -4.407000000    -7.356000000    -0.090000000
O    -6.005000000    -4.000000000    -0.893000000
H    -5.411000000    -3.360000000    -0.502000000
H    -6.872000000    -3.750000000    -0.574000000
O    -8.371000000    -5.382000000     0.483000000
H    -8.333000000    -4.427000000     0.426000000
H    -8.658000000    -5.663000000    -0.386000000
O    -6.589000000    -0.408000000     0.316000000
H    -6.997000000    -0.564000000    -0.536000000
H    -5.858000000    -1.025000000     0.348000000
O    -8.119000000     0.382000000     2.493000000
H    -7.543000000    -0.008000000     1.835000000
H    -8.800000000     0.822000000     1.985000000
O    -6.038000000    -5.940000000    -2.885000000
H    -6.073000000    -5.402000000    -2.095000000
H    -5.772000000    -5.334000000    -3.577000000
O    -8.024000000    -3.201000000     3.806000000
H    -8.551000000    -2.672000000     3.207000000
H    -7.138000000    -2.848000000     3.721000000
O    -3.690000000    -6.797000000     4.954000000
H    -3.774000000    -5.915000000     4.593000000
H    -3.186000000    -6.680000000     5.759000000
O    -1.440000000    -7.342000000     2.818000000
H    -1.435000000    -6.408000000     2.607000000
H    -2.020000000    -7.413000000     3.576000000
O    -3.280000000    -5.934000000    -0.344000000
H    -3.426000000    -5.373000000     0.418000000
H    -2.830000000    -5.372000000    -0.973000000
O    -2.919000000    -1.852000000     4.668000000
H    -2.015000000    -1.654000000     4.425000000
H    -3.436000000    -1.585000000     3.907000000
O    -0.679000000    -1.182000000     3.473000000
H     0.193000000    -0.844000000     3.678000000
H    -0.596000000    -1.536000000     2.587000000
O    -5.104000000    -1.784000000     3.220000000
H    -5.150000000    -2.064000000     2.306000000
H    -4.959000000    -2.593000000     3.711000000
O    -6.284000000    -0.366000000     5.577000000
H    -5.787000000    -0.859000000     4.925000000
H    -7.149000000    -0.774000000     5.579000000
O    -5.260000000    -4.815000000     3.112000000
H    -4.875000000    -4.513000000     2.290000000
H    -5.944000000    -5.430000000     2.844000000
O    -8.448000000    -2.604000000     1.151000000
H    -9.266000000    -2.230000000     0.824000000
H    -7.783000000    -1.949000000     0.940000000
