201
-1259.29656
C    -2.641000000     4.426000000     1.341000000
H    -2.432000000     4.833000000     0.356000000
C    -1.579000000     4.047000000     2.172000000
C    -1.881000000     3.614000000     3.452000000
H    -1.104000000     3.195000000     4.086000000
C    -0.144000000     4.033000000     1.614000000
O    -0.013000000     5.029000000     0.504000000
H     0.063000000     3.025000000     1.226000000
O     0.873000000     4.319000000     2.592000000
C     1.976000000     3.528000000     2.600000000
C     1.913000000     2.327000000     3.359000000
H     1.064000000     2.240000000     4.033000000
C     2.912000000     1.362000000     3.319000000
O     2.698000000     0.221000000     4.074000000
C     3.906000000     1.446000000     2.370000000
C     5.017000000     0.398000000     2.200000000
H     5.903000000     0.887000000     1.790000000
C     4.657000000    -0.719000000     1.251000000
C     5.028000000    -0.621000000    -0.091000000
H     5.583000000     0.212000000    -0.516000000
H     5.355000000     0.042000000     3.175000000
C     3.887000000     2.551000000     1.518000000
H     4.533000000     2.565000000     0.643000000
C     2.929000000     3.610000000     1.618000000
C     2.922000000     4.769000000     0.652000000
H     3.995000000     4.924000000     0.526000000
H     2.527000000     5.595000000     1.247000000
C     2.127000000     4.440000000    -0.597000000
C     2.795000000     3.906000000    -1.684000000
H     3.872000000     3.761000000    -1.702000000
C     0.706000000     4.637000000    -0.607000000
C    -0.026000000     4.252000000    -1.688000000
H    -1.111000000     4.221000000    -1.621000000
C     0.620000000     3.735000000    -2.794000000
O    -0.226000000     3.288000000    -3.777000000
C    -0.422000000     1.805000000    -3.782000000
C    -1.952000000     1.358000000    -3.972000000
C    -2.354000000     0.147000000    -4.587000000
H    -1.545000000    -0.440000000    -5.014000000
C    -2.942000000     2.222000000    -3.567000000
H    -2.746000000     3.207000000    -3.150000000
O     0.436000000     1.293000000    -4.790000000
H    -0.032000000     1.550000000    -2.786000000
C     2.003000000     3.556000000    -2.790000000
C     2.710000000     2.932000000    -4.016000000
H     3.698000000     3.293000000    -4.308000000
H     2.243000000     3.142000000    -4.980000000
C     2.638000000     1.389000000    -3.835000000
C     3.712000000     0.669000000    -3.299000000
H     4.585000000     1.171000000    -2.889000000
C     1.513000000     0.686000000    -4.347000000
C     1.475000000    -0.695000000    -4.112000000
H     0.588000000    -1.260000000    -4.387000000
C     2.532000000    -1.385000000    -3.565000000
O     2.330000000    -2.704000000    -3.172000000
C     1.939000000    -3.126000000    -1.834000000
C     0.803000000    -4.169000000    -1.788000000
C     0.127000000    -4.405000000    -2.954000000
H     0.358000000    -3.950000000    -3.914000000
C     0.542000000    -4.840000000    -0.617000000
H     1.070000000    -4.591000000     0.300000000
O     3.167000000    -3.598000000    -1.256000000
H     1.531000000    -2.244000000    -1.318000000
C     3.614000000    -0.691000000    -3.105000000
C     4.790000000    -1.469000000    -2.504000000
H     5.619000000    -0.783000000    -2.691000000
H     5.047000000    -2.434000000    -2.946000000
C     4.515000000    -1.563000000    -0.972000000
C     3.700000000    -2.585000000    -0.512000000
C     3.387000000    -2.664000000     0.850000000
H     2.616000000    -3.359000000     1.174000000
C     3.806000000    -1.722000000     1.714000000
O     3.370000000    -1.822000000     3.028000000
C     2.215000000    -0.941000000     3.398000000
H     1.631000000    -0.586000000     2.536000000
C     1.218000000    -1.764000000     4.254000000
C     0.045000000    -1.185000000     4.792000000
H    -0.137000000    -0.120000000     4.676000000
C     1.321000000    -3.150000000     4.496000000
H     2.188000000    -3.615000000     4.034000000
C     0.317000000    -3.986000000     5.035000000
O     0.395000000    -5.338000000     5.023000000
C    -0.729000000    -3.340000000     5.535000000
H    -1.591000000    -3.892000000     5.901000000
C    -0.824000000    -1.963000000     5.538000000
O    -1.967000000    -1.384000000     6.040000000
C    -1.997000000    -0.025000000     6.366000000
C    -2.833000000     0.834000000     5.683000000
H    -3.511000000     0.364000000     4.975000000
C    -1.102000000     0.510000000     7.317000000
H    -0.531000000    -0.212000000     7.895000000
C    -1.038000000     1.845000000     7.577000000
H    -0.381000000     2.155000000     8.386000000
C    -1.788000000     2.745000000     6.838000000
H    -1.666000000     3.809000000     7.023000000
C    -2.677000000     2.230000000     5.913000000
O    -3.497000000     3.101000000     5.151000000
C    -3.231000000     3.528000000     3.877000000
C    -4.248000000     4.002000000     3.074000000
H    -5.260000000     4.039000000     3.469000000
C    -4.025000000     4.369000000     1.743000000
O    -5.042000000     5.006000000     0.984000000
C    -5.075000000     5.021000000    -0.330000000
C    -4.828000000     3.865000000    -1.076000000
H    -4.567000000     2.948000000    -0.554000000
C    -5.415000000     6.189000000    -0.903000000
H    -5.644000000     7.072000000    -0.312000000
C    -5.676000000     6.266000000    -2.301000000
H    -6.131000000     7.161000000    -2.717000000
C    -5.542000000     5.096000000    -3.056000000
H    -5.807000000     5.082000000    -4.110000000
C    -5.128000000     3.890000000    -2.440000000
O    -5.268000000     2.711000000    -3.214000000
C    -4.284000000     1.872000000    -3.683000000
C    -4.611000000     0.590000000    -4.173000000
H    -5.658000000     0.301000000    -4.185000000
C    -3.656000000    -0.306000000    -4.559000000
O    -4.103000000    -1.623000000    -4.830000000
C    -3.175000000    -2.557000000    -5.291000000
C    -2.845000000    -3.682000000    -4.504000000
H    -3.200000000    -3.725000000    -3.477000000
C    -2.688000000    -2.488000000    -6.620000000
H    -3.107000000    -1.727000000    -7.273000000
C    -1.735000000    -3.467000000    -7.101000000
H    -1.394000000    -3.349000000    -8.126000000
C    -1.341000000    -4.552000000    -6.256000000
H    -0.647000000    -5.296000000    -6.639000000
C    -1.894000000    -4.579000000    -4.977000000
O    -1.640000000    -5.613000000    -4.128000000
C    -0.943000000    -5.436000000    -2.969000000
C    -1.115000000    -6.195000000    -1.821000000
H    -1.867000000    -6.979000000    -1.840000000
C    -0.371000000    -5.865000000    -0.635000000
O    -0.659000000    -6.573000000     0.490000000
C     0.256000000    -6.588000000     1.545000000
C     1.497000000    -7.184000000     1.441000000
H     1.724000000    -7.631000000     0.477000000
C     2.400000000    -7.182000000     2.494000000
H     3.374000000    -7.588000000     2.233000000
C     2.061000000    -6.591000000     3.744000000
H     2.761000000    -6.606000000     4.576000000
C     0.809000000    -6.019000000     3.849000000
C    -0.141000000    -6.101000000     2.839000000
H    -1.096000000    -5.583000000     2.877000000
O    -1.970000000    -6.580000000     6.312000000
H    -2.681000000    -6.194000000     5.802000000
H    -1.399000000    -6.985000000     5.659000000
O    -4.813000000    -2.565000000     6.667000000
H    -4.413000000    -3.232000000     7.224000000
H    -4.112000000    -2.298000000     6.072000000
O    -4.766000000    -7.338000000    -0.392000000
H    -4.449000000    -7.681000000    -1.228000000
H    -4.236000000    -6.556000000    -0.238000000
O    -3.253000000    -5.185000000     0.910000000
H    -2.663000000    -4.729000000     0.310000000
H    -3.294000000    -4.621000000     1.682000000
O    -5.460000000     0.842000000     3.020000000
H    -5.361000000     0.934000000     2.072000000
H    -5.104000000    -0.025000000     3.215000000
O    -6.263000000    -4.747000000     4.444000000
H    -5.318000000    -4.624000000     4.533000000
H    -6.354000000    -5.570000000     3.964000000
O    -8.868000000    -2.327000000     1.325000000
H    -9.258000000    -2.536000000     2.173000000
H    -9.550000000    -1.842000000     0.860000000
O    -7.709000000    -4.199000000     6.825000000
H    -7.320000000    -4.709000000     6.115000000
H    -6.969000000    -3.748000000     7.231000000
O    -5.138000000    -3.844000000    -1.175000000
H    -5.323000000    -3.765000000    -0.240000000
H    -5.401000000    -3.000000000    -1.543000000
O    -3.585000000    -5.370000000     4.637000000
H    -3.712000000    -6.055000000     3.980000000
H    -3.421000000    -4.577000000     4.127000000
O    -3.736000000    -7.594000000     2.369000000
H    -3.720000000    -6.979000000     1.636000000
H    -3.909000000    -8.444000000     1.965000000
O    -6.422000000     1.606000000     5.671000000
H    -6.432000000     0.707000000     6.001000000
H    -6.108000000     1.528000000     4.770000000
O    -6.941000000    -2.035000000     4.331000000
H    -6.735000000    -2.909000000     4.664000000
H    -6.192000000    -1.806000000     3.782000000
O    -6.504000000    -1.528000000    -1.786000000
H    -6.946000000    -1.505000000    -0.937000000
H    -7.209000000    -1.423000000    -2.425000000
O    -7.350000000    -0.863000000     7.711000000
H    -6.985000000    -1.329000000     6.959000000
H    -8.185000000    -1.299000000     7.880000000
O    -6.430000000    -5.443000000     1.414000000
H    -5.990000000    -6.100000000     0.875000000
H    -5.770000000    -4.762000000     1.549000000
O    -5.449000000     0.758000000     0.099000000
H    -5.258000000    -0.008000000    -0.442000000
H    -6.405000000     0.816000000     0.104000000
O    -8.485000000     0.447000000     2.464000000
H    -8.086000000    -0.031000000     3.190000000
H    -8.641000000     1.326000000     2.811000000
O    -6.147000000    -2.047000000     1.101000000
H    -7.045000000    -2.018000000     1.431000000
H    -5.602000000    -1.934000000     1.879000000
