201
-1223.99858
C    -3.252000000     4.340000000     1.909000000
H    -2.990000000     4.990000000     1.078000000
C    -2.226000000     3.801000000     2.611000000
C    -2.542000000     2.858000000     3.630000000
H    -1.777000000     2.236000000     4.089000000
C    -0.746000000     3.933000000     2.268000000
O    -0.387000000     5.153000000     1.584000000
H    -0.463000000     3.045000000     1.682000000
O     0.147000000     3.696000000     3.400000000
C     1.377000000     3.066000000     3.197000000
C     1.501000000     1.776000000     3.742000000
H     0.651000000     1.349000000     4.270000000
C     2.614000000     0.986000000     3.437000000
O     2.744000000    -0.257000000     4.019000000
C     3.634000000     1.532000000     2.642000000
C     4.945000000     0.730000000     2.433000000
H     5.722000000     1.448000000     2.162000000
C     4.769000000    -0.255000000     1.263000000
C     5.083000000     0.126000000    -0.082000000
H     5.584000000     1.070000000    -0.284000000
H     5.272000000     0.200000000     3.330000000
C     3.478000000     2.808000000     2.123000000
H     4.267000000     3.280000000     1.543000000
C     2.409000000     3.569000000     2.455000000
C     2.317000000     4.963000000     1.720000000
H     3.279000000     5.389000000     1.428000000
H     1.881000000     5.664000000     2.434000000
C     1.583000000     4.900000000     0.371000000
C     2.234000000     4.583000000    -0.840000000
H     3.307000000     4.411000000    -0.850000000
C     0.286000000     4.988000000     0.391000000
C    -0.507000000     4.838000000    -0.738000000
H    -1.583000000     4.963000000    -0.642000000
C     0.056000000     4.378000000    -1.915000000
O    -0.738000000     4.008000000    -2.965000000
C    -0.758000000     2.547000000    -3.226000000
C    -2.169000000     1.883000000    -3.261000000
C    -2.348000000     0.511000000    -3.440000000
H    -1.495000000    -0.131000000    -3.644000000
C    -3.322000000     2.682000000    -3.044000000
H    -3.230000000     3.752000000    -2.877000000
O     0.104000000     2.168000000    -4.353000000
H    -0.253000000     2.084000000    -2.365000000
C     1.442000000     4.336000000    -1.972000000
C     2.178000000     3.942000000    -3.318000000
H     3.156000000     4.429000000    -3.323000000
H     1.663000000     4.422000000    -4.153000000
C     2.300000000     2.447000000    -3.504000000
C     3.492000000     1.804000000    -3.073000000
H     4.327000000     2.341000000    -2.630000000
C     1.307000000     1.607000000    -4.006000000
C     1.497000000     0.233000000    -4.132000000
H     0.681000000    -0.398000000    -4.475000000
C     2.681000000    -0.373000000    -3.667000000
O     2.704000000    -1.806000000    -3.726000000
C     2.596000000    -2.497000000    -2.444000000
C     1.782000000    -3.841000000    -2.688000000
C     0.609000000    -3.894000000    -3.505000000
H     0.291000000    -3.015000000    -4.060000000
C     2.142000000    -5.013000000    -1.918000000
H     2.986000000    -5.099000000    -1.238000000
O     3.865000000    -2.860000000    -1.905000000
H     2.002000000    -1.964000000    -1.687000000
C     3.709000000     0.368000000    -3.125000000
C     4.975000000    -0.316000000    -2.578000000
H     5.834000000     0.324000000    -2.793000000
H     5.156000000    -1.184000000    -3.215000000
C     4.799000000    -0.729000000    -1.196000000
C     4.319000000    -2.016000000    -0.918000000
C     4.018000000    -2.392000000     0.398000000
H     3.652000000    -3.408000000     0.524000000
C     4.366000000    -1.620000000     1.486000000
O     3.847000000    -1.908000000     2.733000000
C     2.525000000    -1.390000000     3.075000000
H     2.034000000    -1.034000000     2.158000000
C     1.636000000    -2.487000000     3.635000000
C     0.446000000    -2.101000000     4.209000000
H     0.175000000    -1.062000000     4.378000000
C     1.841000000    -3.793000000     3.274000000
H     2.805000000    -4.117000000     2.888000000
C     0.878000000    -4.758000000     3.541000000
O     1.196000000    -6.071000000     3.239000000
C    -0.363000000    -4.421000000     4.114000000
H    -1.115000000    -5.133000000     4.445000000
C    -0.582000000    -3.084000000     4.400000000
O    -1.780000000    -2.660000000     4.980000000
C    -2.081000000    -1.428000000     5.486000000
C    -2.982000000    -0.611000000     4.821000000
H    -3.540000000    -0.956000000     3.954000000
C    -1.478000000    -1.024000000     6.661000000
H    -0.761000000    -1.613000000     7.227000000
C    -1.783000000     0.235000000     7.219000000
H    -1.370000000     0.637000000     8.141000000
C    -2.789000000     0.978000000     6.655000000
H    -3.060000000     1.939000000     7.083000000
C    -3.291000000     0.577000000     5.403000000
O    -4.213000000     1.393000000     4.775000000
C    -3.833000000     2.499000000     3.915000000
C    -4.876000000     3.156000000     3.218000000
H    -5.878000000     2.818000000     3.471000000
C    -4.585000000     4.092000000     2.214000000
O    -5.650000000     4.819000000     1.528000000
C    -5.707000000     5.036000000     0.183000000
C    -5.581000000     3.954000000    -0.626000000
H    -5.478000000     2.955000000    -0.209000000
C    -6.008000000     6.269000000    -0.306000000
H    -6.256000000     7.079000000     0.376000000
C    -5.937000000     6.476000000    -1.745000000
H    -6.079000000     7.489000000    -2.114000000
C    -5.874000000     5.330000000    -2.581000000
H    -5.830000000     5.446000000    -3.661000000
C    -5.684000000     4.092000000    -1.980000000
O    -5.753000000     3.010000000    -2.815000000
C    -4.650000000     2.183000000    -3.101000000
C    -4.788000000     0.811000000    -3.271000000
H    -5.767000000     0.367000000    -3.105000000
C    -3.671000000    -0.029000000    -3.377000000
O    -3.889000000    -1.363000000    -3.364000000
C    -3.287000000    -2.166000000    -4.323000000
C    -2.648000000    -3.348000000    -3.902000000
H    -2.506000000    -3.590000000    -2.852000000
C    -3.292000000    -1.829000000    -5.680000000
H    -3.698000000    -0.882000000    -6.025000000
C    -2.715000000    -2.745000000    -6.555000000
H    -2.875000000    -2.435000000    -7.584000000
C    -2.193000000    -3.936000000    -6.149000000
H    -1.682000000    -4.558000000    -6.879000000
C    -2.122000000    -4.238000000    -4.786000000
O    -1.290000000    -5.213000000    -4.308000000
C    -0.156000000    -5.063000000    -3.518000000
C     0.296000000    -6.215000000    -2.883000000
H    -0.335000000    -7.098000000    -2.827000000
C     1.398000000    -6.197000000    -2.065000000
O     1.676000000    -7.346000000    -1.369000000
C     2.063000000    -7.304000000    -0.057000000
C     3.300000000    -7.949000000     0.260000000
H     3.769000000    -8.576000000    -0.494000000
C     3.819000000    -7.877000000     1.514000000
H     4.728000000    -8.388000000     1.822000000
C     3.078000000    -7.224000000     2.487000000
H     3.529000000    -7.189000000     3.475000000
C     1.880000000    -6.548000000     2.193000000
C     1.380000000    -6.522000000     0.902000000
H     0.419000000    -6.111000000     0.602000000
O    -3.937000000    -3.962000000     6.373000000
H    -4.553000000    -4.668000000     6.180000000
H    -3.545000000    -3.748000000     5.527000000
O    -7.700000000    -4.949000000    -1.840000000
H    -8.291000000    -4.353000000    -2.301000000
H    -7.122000000    -4.374000000    -1.339000000
O    -5.924000000    -6.215000000     0.095000000
H    -6.104000000    -5.450000000     0.640000000
H    -5.202000000    -5.942000000    -0.471000000
O    -6.627000000    -4.099000000     1.468000000
H    -7.306000000    -3.437000000     1.593000000
H    -5.831000000    -3.596000000     1.296000000
O    -7.051000000    -0.527000000    -0.359000000
H    -7.053000000    -1.068000000    -1.148000000
H    -6.213000000    -0.720000000     0.062000000
O    -1.435000000    -8.544000000    -0.050000000
H    -1.676000000    -8.805000000    -0.939000000
H    -1.210000000    -7.617000000    -0.126000000
O    -3.867000000    -4.442000000     3.700000000
H    -3.448000000    -4.020000000     2.950000000
H    -3.730000000    -5.378000000     3.556000000
O    -6.927000000    -4.160000000     5.198000000
H    -6.458000000    -3.408000000     4.837000000
H    -6.795000000    -4.093000000     6.144000000
O    -8.864000000    -2.996000000    -3.360000000
H    -8.597000000    -2.078000000    -3.313000000
H    -9.679000000    -2.983000000    -3.862000000
O    -8.711000000    -1.713000000     3.064000000
H    -7.762000000    -1.595000000     3.102000000
H    -9.062000000    -1.018000000     3.620000000
O    -3.723000000    -6.288000000    -2.118000000
H    -3.445000000    -5.698000000    -2.819000000
H    -3.372000000    -7.142000000    -2.370000000
O    -2.297000000    -5.248000000    -0.194000000
H    -2.904000000    -5.580000000    -0.856000000
H    -2.800000000    -4.586000000     0.280000000
O    -2.215000000    -6.597000000     2.448000000
H    -1.989000000    -6.294000000     1.569000000
H    -2.612000000    -7.458000000     2.310000000
O    -5.916000000    -0.697000000     3.136000000
H    -5.969000000     0.259000000     3.161000000
H    -5.591000000    -0.896000000     2.258000000
O    -5.967000000    -4.723000000    -4.009000000
H    -6.271000000    -3.816000000    -3.981000000
H    -6.029000000    -5.025000000    -3.103000000
O    -5.397000000    -3.336000000    -1.435000000
H    -4.904000000    -3.490000000    -0.630000000
H    -5.111000000    -2.471000000    -1.729000000
O    -8.507000000     2.255000000     2.121000000
H    -8.435000000     1.641000000     2.852000000
H    -8.331000000     1.724000000     1.344000000
O    -5.524000000    -7.532000000     3.175000000
H    -5.834000000    -6.737000000     2.740000000
H    -4.926000000    -7.932000000     2.544000000
O    -9.398000000    -1.416000000     0.465000000
H    -9.282000000    -1.583000000     1.400000000
H    -8.541000000    -1.107000000     0.169000000
