201
-1252.21643
C    -3.156000000     3.808000000     1.838000000
H    -2.949000000     4.558000000     1.078000000
C    -2.109000000     3.222000000     2.561000000
C    -2.359000000     2.260000000     3.534000000
H    -1.516000000     1.795000000     4.040000000
C    -0.688000000     3.564000000     2.201000000
O    -0.622000000     4.727000000     1.288000000
H    -0.406000000     2.703000000     1.577000000
O     0.219000000     3.747000000     3.296000000
C     1.427000000     3.094000000     3.211000000
C     1.582000000     1.919000000     3.909000000
H     0.815000000     1.626000000     4.621000000
C     2.632000000     1.131000000     3.613000000
O     2.579000000    -0.176000000     4.244000000
C     3.729000000     1.560000000     2.793000000
C     4.883000000     0.667000000     2.495000000
H     5.752000000     1.256000000     2.194000000
C     4.592000000    -0.386000000     1.434000000
C     4.920000000    -0.070000000     0.072000000
H     5.373000000     0.866000000    -0.245000000
H     5.185000000     0.258000000     3.461000000
C     3.569000000     2.807000000     2.159000000
H     4.385000000     3.149000000     1.529000000
C     2.425000000     3.578000000     2.379000000
C     2.236000000     4.841000000     1.579000000
H     3.216000000     5.290000000     1.403000000
H     1.767000000     5.613000000     2.193000000
C     1.556000000     4.503000000     0.245000000
C     2.245000000     4.208000000    -0.920000000
H     3.317000000     4.073000000    -0.806000000
C     0.134000000     4.559000000     0.166000000
C    -0.568000000     4.297000000    -0.991000000
H    -1.650000000     4.221000000    -1.063000000
C     0.199000000     4.180000000    -2.180000000
O    -0.484000000     3.899000000    -3.308000000
C    -0.687000000     2.524000000    -3.751000000
C    -2.128000000     2.233000000    -4.136000000
C    -2.477000000     0.977000000    -4.648000000
H    -1.666000000     0.260000000    -4.749000000
C    -3.192000000     3.050000000    -3.840000000
H    -2.972000000     4.015000000    -3.389000000
O     0.274000000     2.261000000    -4.717000000
H    -0.552000000     1.868000000    -2.878000000
C     1.580000000     4.073000000    -2.133000000
C     2.339000000     3.744000000    -3.418000000
H     3.352000000     4.150000000    -3.390000000
H     1.891000000     4.250000000    -4.276000000
C     2.472000000     2.234000000    -3.634000000
C     3.496000000     1.467000000    -3.005000000
H     4.173000000     1.998000000    -2.340000000
C     1.401000000     1.574000000    -4.248000000
C     1.394000000     0.131000000    -4.214000000
H     0.600000000    -0.412000000    -4.720000000
C     2.468000000    -0.597000000    -3.659000000
O     2.537000000    -1.974000000    -3.518000000
C     2.300000000    -2.521000000    -2.213000000
C     1.246000000    -3.600000000    -2.378000000
C     0.124000000    -3.471000000    -3.163000000
H     0.044000000    -2.539000000    -3.718000000
C     1.285000000    -4.703000000    -1.531000000
H     2.162000000    -4.858000000    -0.908000000
O     3.404000000    -2.982000000    -1.494000000
H     1.843000000    -1.714000000    -1.621000000
C     3.571000000     0.103000000    -3.078000000
C     4.724000000    -0.680000000    -2.424000000
H     5.626000000    -0.090000000    -2.601000000
H     4.925000000    -1.637000000    -2.910000000
C     4.552000000    -0.994000000    -0.942000000
C     3.925000000    -2.188000000    -0.556000000
C     3.752000000    -2.541000000     0.801000000
H     3.336000000    -3.511000000     1.063000000
C     4.198000000    -1.654000000     1.775000000
O     3.695000000    -1.898000000     3.071000000
C     2.383000000    -1.348000000     3.408000000
H     1.725000000    -1.140000000     2.551000000
C     1.633000000    -2.465000000     4.135000000
C     0.717000000    -2.101000000     5.167000000
H     0.484000000    -1.055000000     5.348000000
C     1.681000000    -3.814000000     3.721000000
H     2.349000000    -4.061000000     2.900000000
C     0.820000000    -4.784000000     4.300000000
O     1.010000000    -6.056000000     4.009000000
C     0.021000000    -4.415000000     5.331000000
H    -0.665000000    -5.154000000     5.738000000
C    -0.163000000    -3.088000000     5.688000000
O    -1.218000000    -2.787000000     6.497000000
C    -1.703000000    -1.478000000     6.544000000
C    -2.642000000    -1.018000000     5.584000000
H    -2.963000000    -1.659000000     4.766000000
C    -1.366000000    -0.646000000     7.602000000
H    -0.752000000    -1.071000000     8.391000000
C    -1.915000000     0.690000000     7.641000000
H    -1.637000000     1.304000000     8.494000000
C    -2.777000000     1.146000000     6.601000000
H    -3.294000000     2.089000000     6.757000000
C    -3.066000000     0.324000000     5.533000000
O    -3.951000000     0.778000000     4.615000000
C    -3.619000000     1.819000000     3.674000000
C    -4.690000000     2.324000000     2.974000000
H    -5.637000000     1.791000000     2.936000000
C    -4.460000000     3.372000000     2.059000000
O    -5.529000000     3.734000000     1.241000000
C    -5.386000000     4.346000000    -0.039000000
C    -5.595000000     3.643000000    -1.234000000
H    -5.746000000     2.570000000    -1.144000000
C    -4.924000000     5.637000000    -0.109000000
H    -4.671000000     6.167000000     0.806000000
C    -4.745000000     6.273000000    -1.279000000
H    -4.349000000     7.282000000    -1.351000000
C    -4.940000000     5.632000000    -2.480000000
H    -4.707000000     6.070000000    -3.447000000
C    -5.403000000     4.284000000    -2.483000000
O    -5.534000000     3.563000000    -3.661000000
C    -4.530000000     2.726000000    -4.156000000
C    -4.776000000     1.506000000    -4.721000000
H    -5.787000000     1.188000000    -4.963000000
C    -3.765000000     0.650000000    -5.068000000
O    -4.092000000    -0.559000000    -5.597000000
C    -3.106000000    -1.491000000    -5.841000000
C    -2.933000000    -2.573000000    -4.958000000
H    -3.511000000    -2.632000000    -4.040000000
C    -2.205000000    -1.321000000    -6.925000000
H    -2.234000000    -0.430000000    -7.547000000
C    -1.287000000    -2.362000000    -7.211000000
H    -0.522000000    -2.350000000    -7.982000000
C    -1.081000000    -3.391000000    -6.270000000
H    -0.224000000    -4.050000000    -6.385000000
C    -1.923000000    -3.509000000    -5.149000000
O    -1.733000000    -4.495000000    -4.296000000
C    -0.775000000    -4.489000000    -3.316000000
C    -0.764000000    -5.569000000    -2.401000000
H    -1.395000000    -6.444000000    -2.530000000
C     0.266000000    -5.674000000    -1.513000000
O     0.340000000    -6.727000000    -0.734000000
C     1.139000000    -6.808000000     0.397000000
C     2.272000000    -7.601000000     0.420000000
H     2.595000000    -7.992000000    -0.542000000
C     2.922000000    -7.956000000     1.595000000
H     3.728000000    -8.685000000     1.617000000
C     2.442000000    -7.403000000     2.801000000
H     2.915000000    -7.687000000     3.738000000
C     1.364000000    -6.521000000     2.796000000
C     0.729000000    -6.211000000     1.547000000
H    -0.105000000    -5.527000000     1.410000000
O    -5.499000000    -6.310000000    -5.015000000
H    -5.224000000    -5.557000000    -4.491000000
H    -6.454000000    -6.312000000    -4.949000000
O    -5.118000000    -4.249000000    -3.320000000
H    -5.473000000    -3.360000000    -3.300000000
H    -4.830000000    -4.413000000    -2.422000000
O    -6.079000000    -6.702000000     3.623000000
H    -6.027000000    -6.532000000     4.563000000
H    -6.025000000    -5.836000000     3.219000000
O    -9.856000000    -1.436000000    -1.552000000
H    -9.971000000    -1.734000000    -0.650000000
H   -10.663000000    -1.697000000    -1.995000000
O    -5.677000000    -8.065000000    -0.798000000
H    -5.642000000    -7.215000000    -0.358000000
H    -6.348000000    -8.554000000    -0.321000000
O    -5.455000000    -1.195000000     3.311000000
H    -4.859000000    -0.486000000     3.554000000
H    -6.166000000    -1.139000000     3.949000000
O    -5.516000000    -4.085000000     2.874000000
H    -5.682000000    -4.262000000     1.948000000
H    -5.611000000    -3.136000000     2.957000000
O    -6.743000000    -3.448000000     0.124000000
H    -5.907000000    -3.539000000    -0.334000000
H    -6.823000000    -2.510000000     0.294000000
O    -2.456000000    -6.932000000     2.905000000
H    -2.318000000    -7.727000000     2.390000000
H    -2.992000000    -6.372000000     2.343000000
O    -6.887000000    -6.183000000     0.547000000
H    -7.688000000    -6.521000000     0.948000000
H    -7.009000000    -5.234000000     0.530000000
O    -3.273000000    -5.743000000     0.459000000
H    -3.334000000    -6.333000000    -0.292000000
H    -3.392000000    -4.869000000     0.088000000
O    -8.539000000    -7.076000000    -1.714000000
H    -7.663000000    -7.101000000    -1.330000000
H    -8.587000000    -6.223000000    -2.145000000
O    -6.460000000     0.327000000    -1.762000000
H    -6.793000000     0.262000000    -2.657000000
H    -5.824000000    -0.384000000    -1.691000000
O    -7.021000000    -1.262000000    -5.382000000
H    -6.693000000    -1.994000000    -5.903000000
H    -7.210000000    -1.643000000    -4.525000000
O    -8.629000000    -4.508000000    -3.488000000
H    -8.066000000    -3.912000000    -2.994000000
H    -9.322000000    -3.947000000    -3.839000000
O    -7.590000000    -2.228000000    -2.947000000
H    -8.324000000    -1.751000000    -2.558000000
H    -6.914000000    -2.220000000    -2.269000000
O    -7.867000000     1.478000000     0.353000000
H    -8.360000000     0.937000000     0.970000000
H    -7.290000000     0.861000000    -0.098000000
O    -3.212000000    -4.936000000     4.836000000
H    -2.551000000    -5.326000000     4.264000000
H    -3.864000000    -4.573000000     4.237000000
O    -9.877000000    -2.630000000     1.264000000
H    -9.129000000    -3.136000000     1.580000000
H   -10.617000000    -2.943000000     1.785000000
