201
-1256.10954
C    -2.784000000     3.111000000     2.792000000
H    -2.905000000     3.245000000     1.720000000
C    -1.561000000     3.141000000     3.399000000
C    -1.438000000     2.608000000     4.690000000
H    -0.445000000     2.649000000     5.129000000
C    -0.317000000     3.353000000     2.622000000
O    -0.471000000     4.546000000     1.846000000
H    -0.169000000     2.502000000     1.941000000
O     0.922000000     3.423000000     3.365000000
C     2.047000000     2.878000000     2.842000000
C     2.385000000     1.619000000     3.364000000
H     1.770000000     1.190000000     4.151000000
C     3.473000000     0.984000000     2.865000000
O     3.602000000    -0.311000000     3.134000000
C     4.156000000     1.552000000     1.778000000
C     5.411000000     0.871000000     1.199000000
H     6.141000000     1.591000000     0.823000000
C     4.943000000    -0.102000000     0.080000000
C     4.955000000     0.346000000    -1.271000000
H     5.417000000     1.276000000    -1.590000000
H     6.018000000     0.346000000     1.940000000
C     3.783000000     2.751000000     1.238000000
H     4.377000000     3.250000000     0.476000000
C     2.768000000     3.507000000     1.820000000
C     2.382000000     4.805000000     1.243000000
H     3.216000000     5.335000000     0.777000000
H     2.071000000     5.459000000     2.060000000
C     1.312000000     4.528000000     0.182000000
C     1.677000000     4.515000000    -1.171000000
H     2.716000000     4.542000000    -1.489000000
C    -0.056000000     4.588000000     0.547000000
C    -1.024000000     4.464000000    -0.463000000
H    -2.059000000     4.271000000    -0.194000000
C    -0.611000000     4.352000000    -1.779000000
O    -1.544000000     4.072000000    -2.772000000
C    -1.721000000     2.635000000    -3.006000000
C    -3.146000000     2.216000000    -3.065000000
C    -3.424000000     0.927000000    -3.446000000
H    -2.628000000     0.264000000    -3.778000000
C    -4.221000000     2.964000000    -2.608000000
H    -4.118000000     3.982000000    -2.238000000
O    -1.096000000     2.322000000    -4.268000000
H    -1.209000000     2.031000000    -2.243000000
C     0.749000000     4.402000000    -2.128000000
C     1.125000000     4.158000000    -3.556000000
H     2.064000000     4.661000000    -3.797000000
H     0.302000000     4.631000000    -4.095000000
C     1.289000000     2.644000000    -3.838000000
C     2.573000000     2.110000000    -3.633000000
H     3.488000000     2.646000000    -3.395000000
C     0.181000000     1.842000000    -4.192000000
C     0.443000000     0.468000000    -4.442000000
H    -0.300000000    -0.225000000    -4.828000000
C     1.673000000    -0.116000000    -4.233000000
O     1.815000000    -1.488000000    -4.381000000
C     1.962000000    -2.184000000    -3.135000000
C     1.097000000    -3.417000000    -3.028000000
C    -0.095000000    -3.464000000    -3.715000000
H    -0.528000000    -2.588000000    -4.192000000
C     1.474000000    -4.537000000    -2.287000000
H     2.465000000    -4.581000000    -1.844000000
O     3.326000000    -2.514000000    -2.843000000
H     1.565000000    -1.578000000    -2.308000000
C     2.740000000     0.731000000    -3.816000000
C     4.090000000     0.085000000    -3.648000000
H     4.832000000     0.876000000    -3.777000000
H     4.286000000    -0.717000000    -4.363000000
C     4.281000000    -0.393000000    -2.229000000
C     3.857000000    -1.660000000    -1.883000000
C     3.962000000    -2.186000000    -0.595000000
H     3.568000000    -3.189000000    -0.449000000
C     4.576000000    -1.381000000     0.361000000
O     4.519000000    -1.807000000     1.669000000
C     3.246000000    -1.340000000     2.220000000
H     2.552000000    -0.875000000     1.504000000
C     2.395000000    -2.373000000     2.958000000
C     1.355000000    -2.020000000     3.830000000
H     1.021000000    -0.990000000     3.729000000
C     2.573000000    -3.756000000     2.725000000
H     3.418000000    -4.107000000     2.138000000
C     1.727000000    -4.683000000     3.391000000
O     1.867000000    -6.040000000     3.099000000
C     0.704000000    -4.316000000     4.198000000
H    -0.037000000    -5.062000000     4.477000000
C     0.540000000    -2.964000000     4.423000000
O    -0.510000000    -2.530000000     5.220000000
C    -0.465000000    -1.477000000     5.997000000
C    -1.382000000    -0.425000000     5.787000000
H    -2.109000000    -0.405000000     4.980000000
C     0.363000000    -1.409000000     7.046000000
H     1.077000000    -2.226000000     7.106000000
C     0.468000000    -0.375000000     8.017000000
H     1.171000000    -0.418000000     8.845000000
C    -0.471000000     0.650000000     7.851000000
H    -0.571000000     1.405000000     8.626000000
C    -1.380000000     0.607000000     6.754000000
O    -2.317000000     1.570000000     6.601000000
C    -2.566000000     2.100000000     5.343000000
C    -3.780000000     2.148000000     4.756000000
H    -4.647000000     1.800000000     5.311000000
C    -3.916000000     2.633000000     3.418000000
O    -5.226000000     2.786000000     2.847000000
C    -5.471000000     3.578000000     1.770000000
C    -5.823000000     2.918000000     0.630000000
H    -5.820000000     1.832000000     0.584000000
C    -5.615000000     4.930000000     1.928000000
H    -5.381000000     5.328000000     2.912000000
C    -6.227000000     5.642000000     0.862000000
H    -6.379000000     6.710000000     0.993000000
C    -6.565000000     5.014000000    -0.323000000
H    -6.890000000     5.587000000    -1.188000000
C    -6.295000000     3.653000000    -0.478000000
O    -6.446000000     3.104000000    -1.742000000
C    -5.488000000     2.384000000    -2.396000000
C    -5.767000000     1.116000000    -2.884000000
H    -6.778000000     0.743000000    -2.741000000
C    -4.780000000     0.380000000    -3.437000000
O    -5.002000000    -0.932000000    -3.756000000
C    -4.174000000    -1.693000000    -4.551000000
C    -3.752000000    -2.991000000    -4.150000000
H    -4.166000000    -3.422000000    -3.242000000
C    -3.649000000    -1.112000000    -5.696000000
H    -4.015000000    -0.164000000    -6.082000000
C    -2.679000000    -1.801000000    -6.428000000
H    -2.287000000    -1.350000000    -7.336000000
C    -2.252000000    -3.066000000    -5.977000000
H    -1.456000000    -3.559000000    -6.530000000
C    -2.800000000    -3.699000000    -4.873000000
O    -2.054000000    -4.731000000    -4.388000000
C    -0.833000000    -4.676000000    -3.788000000
C    -0.428000000    -5.786000000    -3.006000000
H    -0.996000000    -6.712000000    -3.044000000
C     0.649000000    -5.677000000    -2.236000000
O     0.965000000    -6.883000000    -1.606000000
C     1.785000000    -6.931000000    -0.536000000
C     2.883000000    -7.689000000    -0.719000000
H     3.066000000    -8.108000000    -1.706000000
C     3.683000000    -7.870000000     0.415000000
H     4.538000000    -8.539000000     0.382000000
C     3.405000000    -7.267000000     1.640000000
H     4.057000000    -7.480000000     2.483000000
C     2.251000000    -6.508000000     1.785000000
C     1.448000000    -6.314000000     0.639000000
H     0.522000000    -5.744000000     0.627000000
O    -6.052000000    -2.790000000     1.862000000
H    -5.625000000    -2.858000000     1.008000000
H    -5.664000000    -2.012000000     2.263000000
O    -9.386000000    -2.196000000     1.027000000
H    -8.713000000    -2.870000000     1.126000000
H    -9.806000000    -2.149000000     1.885000000
O    -2.524000000    -6.035000000     0.289000000
H    -2.951000000    -5.353000000    -0.228000000
H    -2.706000000    -5.796000000     1.198000000
O    -7.866000000    -4.516000000     0.703000000
H    -7.106000000    -4.045000000     1.046000000
H    -7.510000000    -5.069000000     0.007000000
O    -5.840000000    -5.689000000    -1.195000000
H    -5.546000000    -6.575000000    -1.405000000
H    -5.033000000    -5.199000000    -1.035000000
O    -6.181000000    -5.154000000     3.458000000
H    -6.729000000    -4.956000000     4.217000000
H    -6.076000000    -4.314000000     3.012000000
O    -7.128000000    -8.352000000     0.416000000
H    -6.932000000    -8.340000000     1.353000000
H    -7.102000000    -7.431000000     0.155000000
O    -3.214000000    -6.150000000     3.007000000
H    -4.092000000    -5.882000000     3.275000000
H    -3.137000000    -7.056000000     3.303000000
O    -4.940000000    -0.679000000     3.262000000
H    -4.928000000    -0.800000000     4.211000000
H    -4.089000000    -0.291000000     3.059000000
O    -2.107000000    -8.302000000    -0.755000000
H    -2.058000000    -7.380000000    -0.502000000
H    -2.905000000    -8.365000000    -1.279000000
O    -4.841000000    -8.166000000    -1.328000000
H    -5.205000000    -8.417000000    -0.479000000
H    -5.217000000    -8.794000000    -1.945000000
O    -7.385000000    -0.359000000     0.382000000
H    -7.932000000    -1.101000000     0.127000000
H    -6.487000000    -0.671000000     0.265000000
O    -3.582000000    -6.847000000    -5.243000000
H    -4.524000000    -6.739000000    -5.378000000
H    -3.251000000    -5.955000000    -5.142000000
O    -9.828000000    -2.661000000    -2.474000000
H   -10.163000000    -2.785000000    -1.585000000
H    -8.877000000    -2.705000000    -2.380000000
O    -7.251000000    -2.210000000    -2.262000000
H    -6.927000000    -2.531000000    -3.103000000
H    -6.471000000    -2.156000000    -1.710000000
O    -7.582000000     0.826000000     2.861000000
H    -6.718000000     0.800000000     3.273000000
H    -7.428000000     0.536000000     1.962000000
O    -2.141000000    -1.067000000     2.621000000
H    -2.006000000    -0.886000000     1.691000000
H    -2.426000000    -1.981000000     2.649000000
O    -2.692000000    -3.658000000     2.217000000
H    -3.094000000    -3.935000000     1.393000000
H    -2.516000000    -4.475000000     2.685000000
O    -5.899000000    -5.371000000    -3.969000000
H    -5.926000000    -4.954000000    -3.108000000
H    -6.118000000    -6.287000000    -3.798000000
