201
-1255.45914
C    -4.268000000     2.765000000     1.709000000
H    -4.275000000     3.408000000     0.833000000
C    -3.145000000     2.488000000     2.477000000
C    -3.165000000     1.582000000     3.520000000
H    -2.182000000     1.329000000     3.908000000
C    -1.840000000     3.098000000     2.072000000
O    -2.014000000     4.338000000     1.410000000
H    -1.410000000     2.410000000     1.329000000
O    -0.884000000     3.286000000     3.183000000
C     0.477000000     2.842000000     3.038000000
C     0.958000000     1.875000000     3.819000000
H     0.280000000     1.225000000     4.367000000
C     2.313000000     1.534000000     3.839000000
O     2.639000000     0.344000000     4.412000000
C     3.252000000     2.190000000     3.036000000
C     4.699000000     1.777000000     2.869000000
H     5.398000000     2.603000000     2.720000000
C     4.612000000     0.849000000     1.650000000
C     4.872000000     1.330000000     0.331000000
H     4.966000000     2.385000000     0.087000000
H     5.056000000     1.254000000     3.758000000
C     2.735000000     3.264000000     2.288000000
H     3.429000000     3.837000000     1.679000000
C     1.396000000     3.689000000     2.333000000
C     0.937000000     4.998000000     1.656000000
H     1.779000000     5.661000000     1.449000000
H     0.323000000     5.643000000     2.289000000
C     0.166000000     4.848000000     0.364000000
C     0.966000000     4.763000000    -0.784000000
H     2.034000000     4.953000000    -0.710000000
C    -1.226000000     4.527000000     0.303000000
C    -1.801000000     4.337000000    -0.961000000
H    -2.876000000     4.277000000    -1.110000000
C    -0.933000000     4.106000000    -2.043000000
O    -1.570000000     3.569000000    -3.114000000
C    -1.255000000     2.223000000    -3.447000000
C    -2.520000000     1.479000000    -3.910000000
C    -2.333000000     0.282000000    -4.588000000
H    -1.317000000    -0.026000000    -4.821000000
C    -3.789000000     1.903000000    -3.558000000
H    -3.858000000     2.858000000    -3.044000000
O    -0.154000000     2.008000000    -4.439000000
H    -1.016000000     1.762000000    -2.477000000
C     0.417000000     4.370000000    -2.025000000
C     1.184000000     4.275000000    -3.302000000
H     1.974000000     5.024000000    -3.228000000
H     0.538000000     4.562000000    -4.134000000
C     1.819000000     2.900000000    -3.425000000
C     3.014000000     2.664000000    -2.811000000
H     3.511000000     3.464000000    -2.270000000
C     1.141000000     1.873000000    -4.056000000
C     1.660000000     0.600000000    -4.058000000
H     1.165000000    -0.231000000    -4.555000000
C     2.854000000     0.338000000    -3.466000000
O     3.380000000    -0.909000000    -3.507000000
C     3.147000000    -1.738000000    -2.325000000
C     2.518000000    -3.096000000    -2.534000000
C     1.858000000    -3.402000000    -3.721000000
H     1.966000000    -2.713000000    -4.554000000
C     2.447000000    -3.986000000    -1.519000000
H     2.955000000    -3.814000000    -0.574000000
O     4.446000000    -1.787000000    -1.598000000
H     2.508000000    -1.197000000    -1.612000000
C     3.541000000     1.406000000    -2.807000000
C     4.931000000     1.132000000    -2.186000000
H     5.524000000     2.049000000    -2.205000000
H     5.561000000     0.482000000    -2.798000000
C     4.964000000     0.510000000    -0.819000000
C     4.693000000    -0.868000000    -0.585000000
C     4.407000000    -1.339000000     0.697000000
H     4.181000000    -2.399000000     0.773000000
C     4.437000000    -0.549000000     1.857000000
O     4.034000000    -1.077000000     3.057000000
C     2.641000000    -0.843000000     3.508000000
H     2.134000000    -0.589000000     2.566000000
C     2.037000000    -2.141000000     4.170000000
C     0.905000000    -2.000000000     4.968000000
H     0.413000000    -1.038000000     5.089000000
C     2.634000000    -3.398000000     4.026000000
H     3.491000000    -3.425000000     3.359000000
C     2.008000000    -4.544000000     4.439000000
O     2.570000000    -5.788000000     4.212000000
C     0.849000000    -4.415000000     5.199000000
H     0.523000000    -5.314000000     5.715000000
C     0.263000000    -3.186000000     5.513000000
O    -0.949000000    -3.083000000     6.187000000
C    -1.641000000    -1.904000000     6.313000000
C    -2.739000000    -1.555000000     5.476000000
H    -3.128000000    -2.242000000     4.729000000
C    -1.153000000    -0.956000000     7.244000000
H    -0.182000000    -1.104000000     7.710000000
C    -1.830000000     0.229000000     7.352000000
H    -1.490000000     0.964000000     8.077000000
C    -2.918000000     0.596000000     6.629000000
H    -3.409000000     1.565000000     6.666000000
C    -3.312000000    -0.322000000     5.626000000
O    -4.454000000     0.017000000     4.872000000
C    -4.392000000     0.947000000     3.874000000
C    -5.527000000     1.238000000     3.150000000
H    -6.505000000     0.804000000     3.341000000
C    -5.442000000     2.031000000     2.019000000
O    -6.594000000     2.251000000     1.357000000
C    -6.651000000     2.670000000     0.020000000
C    -6.374000000     1.798000000    -1.078000000
H    -6.240000000     0.739000000    -0.876000000
C    -6.912000000     4.016000000    -0.264000000
H    -7.238000000     4.690000000     0.525000000
C    -6.880000000     4.535000000    -1.559000000
H    -7.151000000     5.579000000    -1.688000000
C    -6.572000000     3.663000000    -2.661000000
H    -6.456000000     4.068000000    -3.663000000
C    -6.389000000     2.316000000    -2.391000000
O    -6.157000000     1.540000000    -3.506000000
C    -4.873000000     1.159000000    -3.919000000
C    -4.706000000    -0.052000000    -4.591000000
H    -5.580000000    -0.672000000    -4.769000000
C    -3.461000000    -0.435000000    -5.026000000
O    -3.247000000    -1.752000000    -5.499000000
C    -2.036000000    -2.223000000    -5.917000000
C    -1.488000000    -3.332000000    -5.258000000
H    -2.034000000    -3.592000000    -4.355000000
C    -1.342000000    -1.576000000    -6.954000000
H    -1.957000000    -0.781000000    -7.368000000
C    -0.162000000    -2.143000000    -7.478000000
H     0.425000000    -1.726000000    -8.293000000
C     0.433000000    -3.134000000    -6.720000000
H     1.460000000    -3.443000000    -6.902000000
C    -0.230000000    -3.778000000    -5.678000000
O     0.320000000    -4.788000000    -4.948000000
C     1.050000000    -4.554000000    -3.792000000
C     0.907000000    -5.434000000    -2.710000000
H     0.197000000    -6.257000000    -2.724000000
C     1.682000000    -5.181000000    -1.594000000
O     1.521000000    -6.021000000    -0.497000000
C     2.441000000    -6.144000000     0.518000000
C     3.718000000    -6.703000000     0.240000000
H     4.052000000    -6.867000000    -0.782000000
C     4.597000000    -6.995000000     1.311000000
H     5.572000000    -7.449000000     1.159000000
C     4.114000000    -6.709000000     2.613000000
H     4.783000000    -6.885000000     3.451000000
C     2.839000000    -6.162000000     2.902000000
C     1.983000000    -5.842000000     1.856000000
H     0.996000000    -5.424000000     2.040000000
O    -2.642000000     0.643000000    -0.522000000
H    -3.097000000     0.631000000     0.320000000
H    -1.928000000     0.015000000    -0.418000000
O    -2.716000000    -7.282000000    -3.149000000
H    -2.627000000    -6.373000000    -2.861000000
H    -2.159000000    -7.779000000    -2.550000000
O    -7.591000000    -2.954000000     2.378000000
H    -7.550000000    -3.799000000     1.930000000
H    -6.751000000    -2.882000000     2.831000000
O    -5.018000000    -1.005000000     0.701000000
H    -4.973000000    -1.907000000     1.020000000
H    -5.928000000    -0.745000000     0.848000000
O    -6.604000000    -7.318000000     2.924000000
H    -7.375000000    -7.796000000     2.616000000
H    -5.872000000    -7.911000000     2.756000000
O     0.556000000    -8.550000000     4.527000000
H     1.175000000    -7.935000000     4.134000000
H     0.938000000    -8.763000000     5.378000000
O    -4.425000000    -8.853000000     0.480000000
H    -4.166000000    -8.113000000     1.030000000
H    -4.462000000    -9.596000000     1.082000000
O    -4.927000000    -3.736000000     1.294000000
H    -4.084000000    -4.163000000     1.441000000
H    -5.564000000    -4.450000000     1.310000000
O    -1.735000000    -9.748000000     3.592000000
H    -0.960000000    -9.227000000     3.803000000
H    -1.903000000    -9.565000000     2.668000000
O    -3.095000000    -7.141000000     2.359000000
H    -2.671000000    -7.241000000     3.211000000
H    -2.824000000    -6.274000000     2.056000000
O    -1.765000000    -7.590000000    -0.586000000
H    -1.539000000    -6.732000000    -0.228000000
H    -2.474000000    -7.904000000    -0.025000000
O    -3.616000000    -4.845000000    -2.145000000
H    -4.008000000    -3.972000000    -2.144000000
H    -3.325000000    -4.978000000    -1.243000000
O    -6.136000000    -3.473000000    -3.946000000
H    -5.984000000    -4.388000000    -3.710000000
H    -5.451000000    -2.990000000    -3.483000000
O    -2.645000000    -4.814000000     4.530000000
H    -2.847000000    -4.788000000     3.595000000
H    -2.008000000    -4.110000000     4.656000000
O    -1.922000000    -5.972000000     6.932000000
H    -2.224000000    -5.241000000     7.471000000
H    -2.192000000    -5.742000000     6.043000000
O     1.764000000    -9.481000000    -0.013000000
H     1.113000000    -8.842000000     0.276000000
H     2.013000000    -9.947000000     0.785000000
O    -4.524000000    -2.077000000    -1.884000000
H    -3.945000000    -1.614000000    -2.490000000
H    -4.325000000    -1.701000000    -1.027000000
O    -7.163000000    -5.247000000     0.961000000
H    -7.555000000    -5.033000000     0.114000000
H    -7.588000000    -6.065000000     1.221000000
O    -1.169000000   -10.182000000    -1.476000000
H    -1.410000000    -9.272000000    -1.308000000
H    -1.894000000   -10.530000000    -1.995000000
