201
-1229.18653
C    -3.315000000     1.626000000     1.912000000
H    -2.941000000     2.018000000     0.969000000
C    -2.520000000     1.801000000     3.018000000
C    -2.826000000     1.039000000     4.201000000
H    -2.098000000     1.002000000     5.008000000
C    -1.163000000     2.580000000     2.820000000
O    -1.438000000     3.932000000     2.311000000
H    -0.552000000     2.076000000     2.057000000
O    -0.406000000     2.650000000     4.037000000
C     0.925000000     2.385000000     4.048000000
C     1.275000000     1.104000000     4.424000000
H     0.539000000     0.497000000     4.945000000
C     2.520000000     0.579000000     4.087000000
O     2.648000000    -0.671000000     4.335000000
C     3.491000000     1.383000000     3.452000000
C     4.837000000     0.736000000     3.009000000
H     5.560000000     1.555000000     2.984000000
C     4.530000000     0.027000000     1.648000000
C     4.924000000     0.706000000     0.477000000
H     5.262000000     1.721000000     0.670000000
H     5.067000000    -0.002000000     3.780000000
C     3.102000000     2.689000000     3.128000000
H     3.800000000     3.327000000     2.594000000
C     1.833000000     3.168000000     3.351000000
C     1.425000000     4.550000000     2.901000000
H     2.232000000     5.284000000     2.873000000
H     0.755000000     4.982000000     3.648000000
C     0.806000000     4.600000000     1.575000000
C     1.641000000     4.730000000     0.445000000
H     2.688000000     4.721000000     0.736000000
C    -0.596000000     4.432000000     1.320000000
C    -1.038000000     4.379000000     0.006000000
H    -2.065000000     4.034000000    -0.087000000
C    -0.206000000     4.648000000    -1.071000000
O    -0.748000000     4.563000000    -2.337000000
C    -0.514000000     3.320000000    -2.979000000
C    -1.787000000     2.806000000    -3.677000000
C    -1.754000000     1.817000000    -4.636000000
H    -0.830000000     1.278000000    -4.827000000
C    -3.027000000     3.227000000    -3.261000000
H    -3.106000000     4.047000000    -2.552000000
O     0.570000000     3.476000000    -3.952000000
H    -0.301000000     2.575000000    -2.198000000
C     1.201000000     4.804000000    -0.877000000
C     2.265000000     4.864000000    -1.983000000
H     3.164000000     5.190000000    -1.455000000
H     2.028000000     5.715000000    -2.625000000
C     2.619000000     3.482000000    -2.621000000
C     3.676000000     2.754000000    -2.097000000
H     4.190000000     3.116000000    -1.210000000
C     1.767000000     2.852000000    -3.508000000
C     2.118000000     1.677000000    -4.045000000
H     1.482000000     1.263000000    -4.824000000
C     3.329000000     1.001000000    -3.655000000
O     3.360000000    -0.300000000    -4.014000000
C     2.941000000    -1.257000000    -2.912000000
C     2.092000000    -2.385000000    -3.375000000
C     1.665000000    -2.520000000    -4.710000000
H     2.162000000    -1.917000000    -5.465000000
C     1.549000000    -3.310000000    -2.499000000
H     1.732000000    -3.150000000    -1.440000000
O     4.019000000    -1.774000000    -2.123000000
H     2.262000000    -0.647000000    -2.298000000
C     4.110000000     1.537000000    -2.626000000
C     5.331000000     0.831000000    -1.991000000
H     6.097000000     1.523000000    -1.635000000
H     5.848000000     0.122000000    -2.640000000
C     4.845000000     0.105000000    -0.783000000
C     4.292000000    -1.195000000    -0.890000000
C     3.939000000    -1.838000000     0.304000000
H     3.555000000    -2.849000000     0.190000000
C     4.032000000    -1.268000000     1.561000000
O     3.581000000    -2.054000000     2.575000000
C     2.368000000    -1.657000000     3.298000000
H     1.597000000    -1.247000000     2.628000000
C     1.587000000    -2.818000000     3.786000000
C     0.669000000    -2.775000000     4.818000000
H     0.679000000    -1.837000000     5.368000000
C     1.674000000    -3.969000000     2.992000000
H     2.229000000    -3.988000000     2.057000000
C     0.900000000    -5.118000000     3.386000000
O     0.953000000    -6.251000000     2.681000000
C     0.067000000    -5.049000000     4.540000000
H    -0.552000000    -5.915000000     4.761000000
C    -0.088000000    -3.871000000     5.230000000
O    -1.031000000    -3.945000000     6.294000000
C    -1.735000000    -2.807000000     6.694000000
C    -2.578000000    -2.139000000     5.779000000
H    -2.760000000    -2.507000000     4.773000000
C    -1.541000000    -2.378000000     8.026000000
H    -0.850000000    -2.844000000     8.724000000
C    -2.350000000    -1.290000000     8.481000000
H    -2.309000000    -0.876000000     9.485000000
C    -3.296000000    -0.739000000     7.600000000
H    -4.020000000    -0.009000000     7.953000000
C    -3.349000000    -1.133000000     6.230000000
O    -4.284000000    -0.577000000     5.309000000
C    -3.946000000     0.194000000     4.235000000
C    -4.801000000     0.197000000     3.157000000
H    -5.751000000    -0.331000000     3.183000000
C    -4.493000000     0.920000000     1.996000000
O    -5.132000000     0.667000000     0.832000000
C    -5.785000000     1.567000000     0.080000000
C    -5.389000000     1.846000000    -1.248000000
H    -4.683000000     1.165000000    -1.716000000
C    -6.709000000     2.470000000     0.673000000
H    -6.985000000     2.382000000     1.721000000
C    -7.222000000     3.536000000    -0.089000000
H    -7.908000000     4.170000000     0.467000000
C    -6.823000000     3.736000000    -1.424000000
H    -7.177000000     4.602000000    -1.979000000
C    -5.801000000     2.942000000    -1.960000000
O    -5.439000000     3.092000000    -3.303000000
C    -4.201000000     2.674000000    -3.718000000
C    -4.152000000     1.729000000    -4.723000000
H    -5.061000000     1.248000000    -5.076000000
C    -2.914000000     1.347000000    -5.188000000
O    -2.997000000     0.286000000    -6.121000000
C    -1.883000000    -0.199000000    -6.723000000
C    -1.407000000    -1.421000000    -6.255000000
H    -1.987000000    -2.023000000    -5.560000000
C    -1.237000000     0.367000000    -7.856000000
H    -1.651000000     1.240000000    -8.354000000
C    -0.193000000    -0.334000000    -8.509000000
H     0.309000000     0.000000000    -9.414000000
C     0.315000000    -1.455000000    -7.928000000
H     1.192000000    -1.976000000    -8.305000000
C    -0.295000000    -2.031000000    -6.830000000
O     0.234000000    -3.264000000    -6.336000000
C     0.735000000    -3.415000000    -5.107000000
C     0.149000000    -4.310000000    -4.202000000
H    -0.600000000    -5.026000000    -4.532000000
C     0.553000000    -4.234000000    -2.907000000
O    -0.049000000    -5.056000000    -1.960000000
C     0.669000000    -5.766000000    -0.977000000
C     1.480000000    -6.786000000    -1.416000000
H     1.559000000    -6.982000000    -2.482000000
C     2.182000000    -7.513000000    -0.516000000
H     2.874000000    -8.181000000    -1.023000000
C     2.023000000    -7.378000000     0.885000000
H     2.484000000    -8.030000000     1.621000000
C     1.124000000    -6.391000000     1.267000000
C     0.512000000    -5.543000000     0.400000000
H    -0.128000000    -4.734000000     0.741000000
O    -6.355000000    -3.231000000    -0.175000000
H    -6.262000000    -3.492000000    -1.092000000
H    -5.457000000    -3.096000000     0.128000000
O    -8.774000000    -2.812000000     0.176000000
H    -7.876000000    -3.103000000     0.015000000
H    -8.712000000    -2.266000000     0.959000000
O    -5.847000000    -4.306000000    -2.719000000
H    -5.747000000    -4.383000000    -3.668000000
H    -4.996000000    -3.995000000    -2.412000000
O    -6.501000000    -4.754000000    -5.364000000
H    -7.002000000    -5.510000000    -5.059000000
H    -7.097000000    -4.295000000    -5.955000000
O    -4.916000000    -1.835000000    -3.870000000
H    -4.720000000    -2.424000000    -4.599000000
H    -4.418000000    -2.191000000    -3.134000000
O    -7.335000000    -6.555000000     1.062000000
H    -7.051000000    -7.438000000     1.302000000
H    -6.555000000    -6.146000000     0.689000000
O    -9.225000000    -0.280000000    -1.542000000
H    -9.346000000    -0.080000000    -0.614000000
H    -8.756000000    -1.114000000    -1.548000000
O    -2.673000000    -6.917000000     1.896000000
H    -2.278000000    -7.708000000     2.264000000
H    -2.360000000    -6.892000000     0.991000000
O    -4.811000000    -6.090000000     0.267000000
H    -4.173000000    -5.954000000     0.968000000
H    -4.752000000    -5.299000000    -0.268000000
O    -6.914000000    -4.688000000     2.883000000
H    -5.996000000    -4.850000000     2.665000000
H    -7.387000000    -5.417000000     2.483000000
O    -4.145000000    -7.776000000    -3.880000000
H    -3.896000000    -8.362000000    -3.165000000
H    -4.019000000    -6.896000000    -3.524000000
O    -7.115000000    -2.366000000     4.439000000
H    -6.585000000    -3.146000000     4.275000000
H    -7.595000000    -2.227000000     3.622000000
O    -2.822000000    -5.595000000    -3.036000000
H    -2.761000000    -4.969000000    -3.757000000
H    -2.907000000    -5.051000000    -2.253000000
O    -3.812000000    -4.212000000    -5.376000000
H    -3.431000000    -4.364000000    -6.241000000
H    -4.636000000    -4.701000000    -5.389000000
O    -7.546000000     0.164000000    -3.636000000
H    -8.014000000    -0.016000000    -2.820000000
H    -6.750000000    -0.364000000    -3.576000000
O    -4.085000000    -4.437000000     2.654000000
H    -3.998000000    -3.943000000     1.839000000
H    -3.410000000    -5.113000000     2.597000000
O    -4.781000000    -4.725000000     5.766000000
H    -4.424000000    -4.382000000     4.946000000
H    -4.753000000    -5.676000000     5.659000000
O    -7.566000000    -6.585000000    -2.477000000
H    -8.359000000    -6.130000000    -2.761000000
H    -6.892000000    -5.906000000    -2.462000000
O    -1.870000000    -7.837000000    -1.298000000
H    -1.989000000    -7.053000000    -1.834000000
H    -2.698000000    -8.310000000    -1.378000000
