201
-1256.07061
C    -3.674000000     1.710000000     2.380000000
H    -3.609000000     2.579000000     1.730000000
C    -2.539000000     1.331000000     3.129000000
C    -2.546000000     0.097000000     3.830000000
H    -1.688000000    -0.266000000     4.389000000
C    -1.266000000     2.155000000     2.965000000
O    -1.446000000     3.592000000     2.731000000
H    -0.724000000     1.728000000     2.108000000
O    -0.495000000     2.140000000     4.142000000
C     0.866000000     1.816000000     4.009000000
C     1.227000000     0.519000000     4.287000000
H     0.449000000    -0.218000000     4.466000000
C     2.583000000     0.159000000     4.182000000
O     2.919000000    -1.171000000     4.407000000
C     3.508000000     1.033000000     3.574000000
C     4.898000000     0.483000000     3.127000000
H     5.586000000     1.331000000     3.157000000
C     4.729000000    -0.137000000     1.686000000
C     4.961000000     0.707000000     0.629000000
H     5.204000000     1.757000000     0.775000000
H     5.317000000    -0.323000000     3.733000000
C     3.077000000     2.357000000     3.286000000
H     3.789000000     3.042000000     2.831000000
C     1.803000000     2.759000000     3.528000000
C     1.391000000     4.200000000     3.159000000
H     2.264000000     4.854000000     3.217000000
H     0.723000000     4.662000000     3.888000000
C     0.652000000     4.301000000     1.813000000
C     1.393000000     4.744000000     0.744000000
H     2.475000000     4.807000000     0.817000000
C    -0.686000000     3.983000000     1.665000000
C    -1.310000000     4.220000000     0.443000000
H    -2.391000000     4.157000000     0.347000000
C    -0.506000000     4.715000000    -0.619000000
O    -1.115000000     4.801000000    -1.844000000
C    -0.931000000     3.543000000    -2.631000000
C    -2.145000000     3.200000000    -3.516000000
C    -1.997000000     2.591000000    -4.797000000
H    -1.016000000     2.562000000    -5.264000000
C    -3.439000000     3.211000000    -2.944000000
H    -3.550000000     3.720000000    -1.990000000
O     0.224000000     3.535000000    -3.499000000
H    -0.830000000     2.779000000    -1.846000000
C     0.845000000     4.926000000    -0.502000000
C     1.844000000     5.071000000    -1.667000000
H     2.633000000     5.722000000    -1.286000000
H     1.329000000     5.692000000    -2.404000000
C     2.200000000     3.718000000    -2.267000000
C     3.434000000     3.155000000    -1.862000000
H     4.095000000     3.739000000    -1.227000000
C     1.393000000     3.000000000    -3.053000000
C     1.701000000     1.727000000    -3.531000000
H     1.033000000     1.158000000    -4.173000000
C     2.904000000     1.163000000    -3.128000000
O     3.140000000    -0.120000000    -3.627000000
C     2.828000000    -1.250000000    -2.758000000
C     1.940000000    -2.260000000    -3.471000000
C     1.278000000    -1.951000000    -4.679000000
H     1.580000000    -1.089000000    -5.268000000
C     1.593000000    -3.387000000    -2.759000000
H     2.042000000    -3.517000000    -1.778000000
O     4.049000000    -1.714000000    -2.130000000
H     2.183000000    -0.892000000    -1.942000000
C     3.787000000     1.839000000    -2.279000000
C     5.029000000     1.119000000    -1.829000000
H     5.656000000     1.920000000    -1.431000000
H     5.468000000     0.623000000    -2.698000000
C     4.778000000     0.177000000    -0.670000000
C     4.316000000    -1.131000000    -0.869000000
C     4.136000000    -1.956000000     0.268000000
H     3.745000000    -2.954000000     0.088000000
C     4.267000000    -1.434000000     1.512000000
O     3.981000000    -2.239000000     2.581000000
C     2.739000000    -2.050000000     3.263000000
H     2.083000000    -1.544000000     2.538000000
C     2.004000000    -3.336000000     3.604000000
C     1.372000000    -3.510000000     4.892000000
H     1.588000000    -2.819000000     5.703000000
C     1.804000000    -4.322000000     2.678000000
H     2.306000000    -4.250000000     1.716000000
C     0.881000000    -5.410000000     2.936000000
O     0.590000000    -6.370000000     2.023000000
C     0.334000000    -5.509000000     4.182000000
H    -0.434000000    -6.254000000     4.375000000
C     0.562000000    -4.532000000     5.150000000
O    -0.261000000    -4.586000000     6.323000000
C    -1.157000000    -3.614000000     6.437000000
C    -1.938000000    -3.251000000     5.310000000
H    -1.659000000    -3.634000000     4.331000000
C    -1.328000000    -2.950000000     7.680000000
H    -0.816000000    -3.298000000     8.574000000
C    -2.380000000    -2.018000000     7.796000000
H    -2.523000000    -1.508000000     8.745000000
C    -3.197000000    -1.687000000     6.696000000
H    -4.048000000    -1.021000000     6.819000000
C    -2.962000000    -2.313000000     5.481000000
O    -3.648000000    -1.923000000     4.388000000
C    -3.660000000    -0.698000000     3.840000000
C    -4.720000000    -0.377000000     3.030000000
H    -5.628000000    -0.967000000     2.938000000
C    -4.745000000     0.845000000     2.332000000
O    -5.963000000     1.117000000     1.617000000
C    -6.115000000     2.089000000     0.720000000
C    -5.722000000     1.896000000    -0.593000000
H    -5.281000000     0.962000000    -0.932000000
C    -6.663000000     3.316000000     1.070000000
H    -6.915000000     3.520000000     2.108000000
C    -6.931000000     4.253000000     0.074000000
H    -7.371000000     5.220000000     0.303000000
C    -6.518000000     4.081000000    -1.260000000
H    -6.809000000     4.717000000    -2.092000000
C    -5.874000000     2.894000000    -1.565000000
O    -5.768000000     2.627000000    -2.861000000
C    -4.541000000     2.644000000    -3.512000000
C    -4.402000000     2.054000000    -4.751000000
H    -5.260000000     1.656000000    -5.287000000
C    -3.120000000     2.007000000    -5.316000000
O    -3.052000000     1.362000000    -6.516000000
C    -1.938000000     0.675000000    -7.069000000
C    -1.601000000    -0.587000000    -6.596000000
H    -2.203000000    -1.160000000    -5.895000000
C    -1.114000000     1.308000000    -7.942000000
H    -1.368000000     2.223000000    -8.472000000
C     0.105000000     0.716000000    -8.329000000
H     0.784000000     1.254000000    -8.986000000
C     0.438000000    -0.535000000    -7.827000000
H     1.312000000    -0.997000000    -8.277000000
C    -0.392000000    -1.169000000    -6.917000000
O    -0.182000000    -2.448000000    -6.500000000
C     0.284000000    -2.758000000    -5.230000000
C     0.051000000    -3.969000000    -4.597000000
H    -0.579000000    -4.755000000    -5.004000000
C     0.645000000    -4.283000000    -3.287000000
O     0.216000000    -5.412000000    -2.633000000
C     0.933000000    -5.947000000    -1.617000000
C     2.273000000    -6.330000000    -1.754000000
H     2.796000000    -6.283000000    -2.705000000
C     3.063000000    -6.740000000    -0.627000000
H     4.114000000    -7.013000000    -0.670000000
C     2.397000000    -6.871000000     0.628000000
H     2.865000000    -7.143000000     1.571000000
C     1.118000000    -6.401000000     0.785000000
C     0.394000000    -5.944000000    -0.314000000
H    -0.600000000    -5.553000000    -0.117000000
O    -6.950000000    -5.638000000     0.119000000
H    -6.049000000    -5.839000000     0.371000000
H    -6.864000000    -5.056000000    -0.636000000
O    -8.435000000    -5.571000000    -3.292000000
H    -9.186000000    -5.093000000    -2.941000000
H    -7.679000000    -5.027000000    -3.069000000
O    -8.629000000    -3.835000000     1.724000000
H    -8.068000000    -4.460000000     1.265000000
H    -9.067000000    -3.348000000     1.026000000
O    -6.411000000    -4.033000000    -2.199000000
H    -6.380000000    -3.232000000    -2.722000000
H    -5.494000000    -4.285000000    -2.092000000
O    -3.427000000    -2.887000000    -4.237000000
H    -3.356000000    -3.713000000    -4.715000000
H    -3.516000000    -3.148000000    -3.321000000
O    -7.350000000    -8.424000000     1.583000000
H    -8.290000000    -8.600000000     1.567000000
H    -7.084000000    -8.458000000     0.664000000
O    -5.470000000    -6.438000000    -6.134000000
H    -6.204000000    -6.933000000    -6.496000000
H    -5.139000000    -6.985000000    -5.422000000
O    -8.192000000    -0.886000000    -4.155000000
H    -7.252000000    -1.057000000    -4.226000000
H    -8.327000000    -0.668000000    -3.233000000
O    -2.491000000    -7.905000000     1.936000000
H    -2.075000000    -8.291000000     2.707000000
H    -2.311000000    -6.968000000     2.010000000
O    -3.912000000    -7.126000000    -0.426000000
H    -3.476000000    -7.536000000     0.321000000
H    -3.629000000    -6.212000000    -0.395000000
O    -6.525000000    -5.983000000     3.494000000
H    -6.010000000    -5.506000000     2.843000000
H    -6.932000000    -6.696000000     3.001000000
O    -1.801000000    -7.734000000    -3.275000000
H    -2.276000000    -6.908000000    -3.190000000
H    -1.051000000    -7.523000000    -3.831000000
O    -3.065000000    -5.237000000    -5.760000000
H    -2.962000000    -4.638000000    -6.499000000
H    -3.895000000    -5.683000000    -5.928000000
O    -7.833000000    -2.602000000     3.944000000
H    -6.980000000    -2.871000000     4.285000000
H    -7.929000000    -3.090000000     3.127000000
O    -5.451000000    -1.183000000    -4.769000000
H    -4.870000000    -1.692000000    -5.334000000
H    -4.882000000    -0.852000000    -4.075000000
O    -4.776000000    -4.534000000     2.015000000
H    -4.245000000    -3.997000000     2.602000000
H    -4.228000000    -4.655000000     1.239000000
O    -6.001000000    -9.244000000    -0.935000000
H    -5.167000000    -8.781000000    -0.853000000
H    -6.304000000    -9.038000000    -1.819000000
O    -8.209000000    -0.292000000     0.923000000
H    -7.463000000     0.233000000     1.213000000
H    -8.787000000    -0.329000000     1.686000000
O    -0.554000000    -9.083000000     0.007000000
H    -0.776000000    -8.487000000    -0.708000000
H    -0.969000000    -8.696000000     0.778000000
