201
-1261.19080
C    -2.758000000     2.377000000     4.163000000
H    -3.024000000     3.138000000     3.434000000
C    -1.374000000     2.042000000     4.268000000
C    -1.015000000     0.999000000     5.122000000
H     0.050000000     0.788000000     5.181000000
C    -0.314000000     2.745000000     3.441000000
O    -0.769000000     4.009000000     3.038000000
H    -0.012000000     2.262000000     2.500000000
O     0.897000000     2.931000000     4.217000000
C     2.024000000     2.650000000     3.509000000
C     2.496000000     1.423000000     3.635000000
H     2.048000000     0.746000000     4.359000000
C     3.505000000     0.872000000     2.758000000
O     3.841000000    -0.507000000     2.878000000
C     4.068000000     1.799000000     1.860000000
C     5.276000000     1.345000000     1.058000000
H     5.819000000     2.257000000     0.804000000
C     4.877000000     0.649000000    -0.252000000
C     4.495000000     1.412000000    -1.337000000
H     4.735000000     2.471000000    -1.379000000
H     5.925000000     0.664000000     1.612000000
C     3.607000000     3.051000000     1.703000000
H     4.107000000     3.752000000     1.039000000
C     2.580000000     3.495000000     2.526000000
C     1.975000000     4.922000000     2.351000000
H     2.799000000     5.482000000     1.903000000
H     1.604000000     5.241000000     3.327000000
C     0.781000000     4.791000000     1.351000000
C     1.037000000     5.135000000     0.015000000
H     2.029000000     5.448000000    -0.301000000
C    -0.469000000     4.386000000     1.739000000
C    -1.531000000     4.229000000     0.827000000
H    -2.517000000     3.980000000     1.209000000
C    -1.230000000     4.451000000    -0.560000000
O    -2.281000000     4.276000000    -1.429000000
C    -2.207000000     3.036000000    -2.124000000
C    -3.558000000     2.291000000    -2.141000000
C    -3.827000000     1.486000000    -3.284000000
H    -3.181000000     1.591000000    -4.152000000
C    -4.294000000     2.106000000    -1.001000000
H    -4.059000000     2.772000000    -0.175000000
O    -1.711000000     3.373000000    -3.458000000
H    -1.492000000     2.351000000    -1.644000000
C     0.047000000     4.850000000    -0.930000000
C     0.408000000     5.127000000    -2.408000000
H     1.285000000     5.770000000    -2.505000000
H    -0.418000000     5.654000000    -2.890000000
C     0.625000000     3.724000000    -3.098000000
C     1.964000000     3.346000000    -3.281000000
H     2.722000000     3.950000000    -2.788000000
C    -0.382000000     2.988000000    -3.608000000
C    -0.047000000     1.850000000    -4.210000000
H    -0.860000000     1.280000000    -4.653000000
C     1.262000000     1.304000000    -4.301000000
O     1.409000000    -0.016000000    -4.707000000
C     1.645000000    -1.020000000    -3.651000000
C     0.860000000    -2.338000000    -3.992000000
C    -0.271000000    -2.308000000    -4.779000000
H    -0.565000000    -1.393000000    -5.287000000
C     1.263000000    -3.492000000    -3.303000000
H     2.168000000    -3.496000000    -2.701000000
O     3.083000000    -1.238000000    -3.414000000
H     1.295000000    -0.622000000    -2.688000000
C     2.298000000     2.038000000    -3.735000000
C     3.697000000     1.553000000    -3.760000000
H     4.394000000     2.392000000    -3.732000000
H     3.941000000     0.951000000    -4.639000000
C     3.981000000     0.747000000    -2.502000000
C     3.670000000    -0.614000000    -2.343000000
C     4.227000000    -1.386000000    -1.310000000
H     3.977000000    -2.444000000    -1.329000000
C     4.730000000    -0.728000000    -0.205000000
O     4.768000000    -1.446000000     0.947000000
C     3.573000000    -1.278000000     1.741000000
H     2.777000000    -0.688000000     1.261000000
C     3.026000000    -2.638000000     2.181000000
C     2.057000000    -2.803000000     3.203000000
H     1.636000000    -1.926000000     3.688000000
C     3.420000000    -3.788000000     1.520000000
H     4.068000000    -3.721000000     0.651000000
C     3.016000000    -5.056000000     1.903000000
O     3.257000000    -6.248000000     1.248000000
C     2.201000000    -5.142000000     3.025000000
H     1.928000000    -6.125000000     3.400000000
C     1.682000000    -4.063000000     3.707000000
O     0.769000000    -4.166000000     4.678000000
C     0.613000000    -3.293000000     5.743000000
C    -0.376000000    -2.317000000     5.676000000
H    -0.939000000    -2.304000000     4.746000000
C     1.477000000    -3.319000000     6.837000000
H     2.290000000    -4.036000000     6.906000000
C     1.396000000    -2.312000000     7.788000000
H     2.100000000    -2.462000000     8.603000000
C     0.306000000    -1.416000000     7.797000000
H     0.176000000    -0.727000000     8.627000000
C    -0.612000000    -1.401000000     6.762000000
O    -1.762000000    -0.644000000     6.777000000
C    -2.024000000     0.357000000     5.849000000
C    -3.400000000     0.654000000     5.719000000
H    -4.133000000     0.181000000     6.368000000
C    -3.752000000     1.689000000     4.841000000
O    -5.072000000     1.953000000     4.644000000
C    -5.618000000     2.384000000     3.466000000
C    -5.333000000     1.621000000     2.365000000
H    -4.577000000     0.840000000     2.398000000
C    -6.699000000     3.250000000     3.449000000
H    -6.912000000     3.904000000     4.291000000
C    -7.454000000     3.423000000     2.261000000
H    -8.198000000     4.216000000     2.265000000
C    -7.199000000     2.711000000     1.075000000
H    -7.889000000     2.786000000     0.239000000
C    -6.097000000     1.811000000     1.194000000
O    -6.021000000     0.844000000     0.224000000
C    -5.381000000     1.140000000    -0.962000000
C    -5.575000000     0.310000000    -2.033000000
H    -6.431000000    -0.360000000    -2.040000000
C    -4.896000000     0.576000000    -3.283000000
O    -5.299000000    -0.013000000    -4.466000000
C    -4.486000000    -0.641000000    -5.384000000
C    -3.749000000    -1.710000000    -4.930000000
H    -3.792000000    -2.036000000    -3.894000000
C    -4.526000000    -0.328000000    -6.744000000
H    -5.152000000     0.472000000    -7.132000000
C    -3.674000000    -0.974000000    -7.617000000
H    -3.688000000    -0.826000000    -8.694000000
C    -2.846000000    -1.995000000    -7.128000000
H    -2.262000000    -2.553000000    -7.855000000
C    -2.931000000    -2.414000000    -5.823000000
O    -2.175000000    -3.530000000    -5.587000000
C    -1.042000000    -3.471000000    -4.858000000
C    -0.640000000    -4.602000000    -4.199000000
H    -1.164000000    -5.517000000    -4.464000000
C     0.521000000    -4.638000000    -3.438000000
O     0.893000000    -5.807000000    -2.883000000
C     2.092000000    -6.140000000    -2.220000000
C     3.233000000    -6.547000000    -2.918000000
H     3.305000000    -6.563000000    -4.003000000
C     4.334000000    -6.943000000    -2.222000000
H     5.188000000    -7.317000000    -2.781000000
C     4.390000000    -6.838000000    -0.856000000
H     5.227000000    -7.126000000    -0.225000000
C     3.259000000    -6.407000000    -0.132000000
C     2.121000000    -6.037000000    -0.836000000
H     1.262000000    -5.675000000    -0.276000000
O    -3.439000000    -6.743000000     1.670000000
H    -2.796000000    -6.307000000     2.228000000
H    -4.030000000    -7.182000000     2.282000000
O    -5.268000000    -5.151000000    -3.589000000
H    -4.515000000    -4.701000000    -3.205000000
H    -5.832000000    -4.446000000    -3.907000000
O    -3.683000000    -3.710000000     6.368000000
H    -3.796000000    -3.123000000     5.621000000
H    -4.180000000    -3.298000000     7.075000000
O    -5.597000000    -4.765000000     2.308000000
H    -4.914000000    -5.433000000     2.358000000
H    -5.137000000    -3.971000000     2.034000000
O    -6.824000000    -3.651000000    -0.847000000
H    -5.952000000    -3.342000000    -0.604000000
H    -6.843000000    -3.586000000    -1.802000000
O    -7.235000000    -0.269000000     4.827000000
H    -7.295000000    -0.501000000     3.900000000
H    -6.358000000     0.104000000     4.924000000
O    -5.922000000    -6.710000000    -0.839000000
H    -6.808000000    -6.599000000    -0.495000000
H    -5.862000000    -6.076000000    -1.554000000
O    -3.939000000    -8.586000000    -0.288000000
H    -3.448000000    -7.971000000     0.257000000
H    -4.769000000    -8.142000000    -0.462000000
O    -9.145000000    -2.157000000     0.324000000
H    -9.471000000    -2.802000000     0.952000000
H    -8.444000000    -2.612000000    -0.144000000
O    -4.927000000    -6.158000000     6.119000000
H    -5.860000000    -6.211000000     5.911000000
H    -4.758000000    -5.221000000     6.223000000
O    -4.978000000    -2.127000000     4.431000000
H    -4.558000000    -2.160000000     3.571000000
H    -5.907000000    -1.996000000     4.238000000
O    -6.973000000    -1.169000000     2.131000000
H    -6.375000000    -0.550000000     1.712000000
H    -7.093000000    -1.863000000     1.483000000
O    -3.645000000    -4.666000000    -1.513000000
H    -3.304000000    -5.330000000    -0.914000000
H    -3.635000000    -3.855000000    -1.004000000
O    -9.117000000    -4.975000000    -1.358000000
H    -8.412000000    -4.402000000    -1.059000000
H    -9.317000000    -5.525000000    -0.601000000
O    -6.928000000    -2.772000000    -3.713000000
H    -7.362000000    -3.137000000    -4.484000000
H    -6.668000000    -1.890000000    -3.980000000
O    -9.238000000     0.411000000     1.354000000
H    -8.389000000     0.407000000     1.794000000
H    -9.522000000    -0.503000000     1.371000000
O    -8.233000000    -4.824000000     3.057000000
H    -8.749000000    -4.713000000     2.259000000
H    -7.326000000    -4.711000000     2.773000000
O    -2.336000000    -6.137000000     5.290000000
H    -2.426000000    -5.376000000     4.716000000
H    -3.171000000    -6.186000000     5.755000000
O    -2.049000000    -4.717000000     3.043000000
H    -1.211000000    -4.257000000     3.101000000
H    -2.705000000    -4.020000000     3.044000000
