201
-1251.17345
C    -2.497000000     3.038000000     4.238000000
H    -2.384000000     4.053000000     3.867000000
C    -1.347000000     2.232000000     4.114000000
C    -1.504000000     0.866000000     4.374000000
H    -0.725000000     0.157000000     4.106000000
C    -0.042000000     2.673000000     3.393000000
O    -0.045000000     4.090000000     3.004000000
H    -0.016000000     2.220000000     2.391000000
O     1.068000000     2.413000000     4.218000000
C     2.282000000     2.043000000     3.554000000
C     2.515000000     0.716000000     3.612000000
H     1.876000000     0.048000000     4.183000000
C     3.550000000     0.087000000     2.937000000
O     3.567000000    -1.295000000     3.036000000
C     4.342000000     0.872000000     2.122000000
C     5.407000000     0.321000000     1.224000000
H     6.193000000     1.062000000     1.064000000
C     4.760000000    -0.231000000    -0.061000000
C     4.840000000     0.539000000    -1.198000000
H     5.379000000     1.482000000    -1.233000000
H     5.917000000    -0.536000000     1.670000000
C     4.019000000     2.194000000     2.009000000
H     4.469000000     2.757000000     1.196000000
C     2.996000000     2.860000000     2.658000000
C     2.644000000     4.297000000     2.372000000
H     3.491000000     4.892000000     2.024000000
H     2.348000000     4.865000000     3.257000000
C     1.558000000     4.427000000     1.312000000
C     1.948000000     4.607000000    -0.036000000
H     3.019000000     4.677000000    -0.208000000
C     0.233000000     4.377000000     1.700000000
C    -0.774000000     4.396000000     0.770000000
H    -1.788000000     4.123000000     1.053000000
C    -0.426000000     4.584000000    -0.578000000
O    -1.454000000     4.432000000    -1.480000000
C    -1.576000000     3.187000000    -2.097000000
C    -3.021000000     2.731000000    -2.152000000
C    -3.539000000     1.980000000    -3.205000000
H    -2.907000000     1.975000000    -4.089000000
C    -3.837000000     2.919000000    -0.999000000
H    -3.401000000     3.444000000    -0.154000000
O    -0.913000000     3.186000000    -3.379000000
H    -0.921000000     2.564000000    -1.469000000
C     0.907000000     4.655000000    -0.965000000
C     1.277000000     4.784000000    -2.426000000
H     2.155000000     5.419000000    -2.563000000
H     0.468000000     5.354000000    -2.887000000
C     1.439000000     3.434000000    -3.079000000
C     2.744000000     2.869000000    -3.067000000
H     3.557000000     3.393000000    -2.571000000
C     0.360000000     2.745000000    -3.521000000
C     0.577000000     1.562000000    -4.255000000
H    -0.236000000     1.076000000    -4.788000000
C     1.841000000     0.966000000    -4.284000000
O     1.850000000    -0.311000000    -4.727000000
C     1.958000000    -1.312000000    -3.717000000
C     1.123000000    -2.502000000    -4.091000000
C    -0.243000000    -2.258000000    -4.380000000
H    -0.550000000    -1.217000000    -4.324000000
C     1.662000000    -3.758000000    -4.010000000
H     2.726000000    -3.952000000    -3.909000000
O     3.291000000    -1.663000000    -3.621000000
H     1.660000000    -0.899000000    -2.742000000
C     2.950000000     1.602000000    -3.686000000
C     4.324000000     0.939000000    -3.594000000
H     5.114000000     1.670000000    -3.408000000
H     4.588000000     0.315000000    -4.451000000
C     4.277000000     0.086000000    -2.377000000
C     3.823000000    -1.214000000    -2.437000000
C     3.713000000    -2.022000000    -1.294000000
H     3.201000000    -2.979000000    -1.360000000
C     4.263000000    -1.543000000    -0.101000000
O     4.154000000    -2.293000000     1.010000000
C     3.094000000    -2.043000000     1.938000000
H     2.392000000    -1.351000000     1.450000000
C     2.372000000    -3.323000000     2.348000000
C     1.930000000    -3.392000000     3.665000000
H     2.099000000    -2.630000000     4.422000000
C     2.093000000    -4.376000000     1.420000000
H     2.503000000    -4.140000000     0.441000000
C     1.242000000    -5.436000000     1.689000000
O     0.939000000    -6.413000000     0.761000000
C     0.755000000    -5.492000000     3.049000000
H     0.193000000    -6.397000000     3.263000000
C     1.120000000    -4.498000000     4.018000000
O     0.484000000    -4.614000000     5.266000000
C    -0.172000000    -3.577000000     5.856000000
C    -1.109000000    -2.763000000     5.190000000
H    -1.405000000    -3.023000000     4.177000000
C     0.169000000    -3.167000000     7.164000000
H     0.987000000    -3.607000000     7.728000000
C    -0.513000000    -2.165000000     7.851000000
H    -0.246000000    -1.916000000     8.875000000
C    -1.550000000    -1.475000000     7.233000000
H    -2.002000000    -0.654000000     7.783000000
C    -1.880000000    -1.799000000     5.895000000
O    -2.846000000    -1.042000000     5.216000000
C    -2.690000000     0.324000000     4.924000000
C    -3.795000000     1.112000000     4.985000000
H    -4.762000000     0.700000000     5.261000000
C    -3.671000000     2.510000000     4.721000000
O    -4.744000000     3.333000000     4.634000000
C    -5.265000000     3.728000000     3.420000000
C    -5.339000000     2.878000000     2.319000000
H    -5.060000000     1.830000000     2.385000000
C    -5.635000000     5.107000000     3.333000000
H    -5.516000000     5.748000000     4.203000000
C    -6.244000000     5.554000000     2.171000000
H    -6.742000000     6.520000000     2.182000000
C    -6.351000000     4.705000000     1.052000000
H    -6.775000000     5.144000000     0.153000000
C    -5.868000000     3.425000000     1.096000000
O    -6.094000000     2.606000000    -0.012000000
C    -5.125000000     2.342000000    -0.972000000
C    -5.671000000     1.663000000    -2.104000000
H    -6.652000000     1.195000000    -2.088000000
C    -4.868000000     1.437000000    -3.223000000
O    -5.340000000     0.863000000    -4.406000000
C    -4.427000000     0.065000000    -5.111000000
C    -3.948000000    -1.140000000    -4.574000000
H    -4.162000000    -1.578000000    -3.602000000
C    -4.029000000     0.289000000    -6.407000000
H    -4.467000000     1.111000000    -6.967000000
C    -3.185000000    -0.543000000    -7.162000000
H    -3.040000000    -0.359000000    -8.223000000
C    -2.725000000    -1.648000000    -6.539000000
H    -2.043000000    -2.287000000    -7.095000000
C    -3.069000000    -1.941000000    -5.237000000
O    -2.507000000    -3.072000000    -4.657000000
C    -1.135000000    -3.279000000    -4.432000000
C    -0.634000000    -4.612000000    -4.353000000
H    -1.205000000    -5.530000000    -4.467000000
C     0.740000000    -4.861000000    -4.170000000
O     1.122000000    -6.144000000    -3.925000000
C     1.690000000    -6.443000000    -2.706000000
C     3.078000000    -6.738000000    -2.737000000
H     3.611000000    -6.755000000    -3.684000000
C     3.729000000    -6.962000000    -1.542000000
H     4.793000000    -7.185000000    -1.540000000
C     2.985000000    -7.025000000    -0.365000000
H     3.483000000    -7.405000000     0.523000000
C     1.655000000    -6.627000000    -0.358000000
C     1.013000000    -6.247000000    -1.499000000
H     0.002000000    -5.847000000    -1.466000000
O    -7.243000000    -5.173000000     0.874000000
H    -7.473000000    -5.950000000     0.365000000
H    -6.733000000    -4.633000000     0.269000000
O    -3.056000000    -9.927000000     0.241000000
H    -3.911000000    -9.593000000     0.513000000
H    -2.477000000    -9.732000000     0.977000000
O    -5.747000000    -5.855000000    -3.724000000
H    -5.081000000    -5.503000000    -4.314000000
H    -5.609000000    -6.802000000    -3.745000000
O    -6.027000000    -8.059000000     3.835000000
H    -5.940000000    -8.205000000     4.777000000
H    -5.694000000    -7.172000000     3.698000000
O    -2.273000000    -8.072000000     3.802000000
H    -2.517000000    -8.333000000     4.690000000
H    -2.431000000    -7.128000000     3.778000000
O    -8.574000000    -1.824000000    -1.085000000
H    -8.189000000    -1.983000000    -0.223000000
H    -7.866000000    -2.009000000    -1.701000000
O    -4.800000000    -2.562000000     3.898000000
H    -4.509000000    -1.651000000     3.942000000
H    -4.150000000    -2.993000000     3.342000000
O    -2.946000000    -4.788000000    -2.454000000
H    -2.825000000    -4.669000000    -1.512000000
H    -2.537000000    -4.017000000    -2.847000000
O    -5.870000000    -5.371000000     4.232000000
H    -5.804000000    -4.461000000     4.522000000
H    -6.798000000    -5.492000000     4.030000000
O     0.177000000    -8.892000000     2.547000000
H     0.256000000    -8.684000000     1.616000000
H    -0.547000000    -8.345000000     2.853000000
O    -8.986000000    -4.360000000     2.784000000
H    -8.333000000    -4.840000000     2.275000000
H    -8.805000000    -4.601000000     3.693000000
O    -5.678000000    -2.246000000     0.519000000
H    -5.729000000    -3.071000000     0.035000000
H    -4.910000000    -2.346000000     1.082000000
O    -5.417000000    -4.403000000    -1.098000000
H    -5.402000000    -4.853000000    -1.942000000
H    -4.510000000    -4.429000000    -0.796000000
O    -3.619000000    -6.738000000     0.474000000
H    -2.939000000    -6.071000000     0.569000000
H    -4.261000000    -6.525000000     1.151000000
O    -7.745000000    -1.517000000     1.826000000
H    -6.893000000    -1.827000000     1.520000000
H    -7.926000000    -2.044000000     2.604000000
O    -2.312000000    -7.417000000    -1.906000000
H    -2.666000000    -6.535000000    -2.026000000
H    -2.624000000    -7.684000000    -1.041000000
O    -6.994000000    -2.533000000     5.217000000
H    -6.674000000    -2.077000000     5.995000000
H    -6.279000000    -2.458000000     4.584000000
O    -4.507000000    -8.545000000    -3.402000000
H    -3.963000000    -8.269000000    -2.664000000
H    -3.913000000    -9.038000000    -3.967000000
O    -3.121000000    -5.440000000     3.717000000
H    -3.946000000    -5.318000000     4.187000000
H    -3.191000000    -4.865000000     2.956000000
