201
-1280.49961
C    -2.069000000     1.491000000     4.324000000
H    -2.446000000     2.216000000     3.608000000
C    -0.641000000     1.331000000     4.398000000
C    -0.027000000     0.266000000     5.126000000
H     1.050000000     0.141000000     5.198000000
C     0.240000000     2.111000000     3.505000000
O    -0.345000000     3.427000000     3.271000000
H     0.276000000     1.598000000     2.532000000
O     1.574000000     2.173000000     4.024000000
C     2.648000000     2.156000000     3.175000000
C     3.366000000     1.001000000     3.126000000
H     3.063000000     0.146000000     3.725000000
C     4.330000000     0.831000000     2.153000000
O     4.929000000    -0.391000000     2.015000000
C     4.544000000     1.799000000     1.195000000
C     5.429000000     1.560000000     0.011000000
H     5.869000000     2.514000000    -0.286000000
C     4.736000000     0.905000000    -1.129000000
C     4.157000000     1.697000000    -2.102000000
H     4.299000000     2.773000000    -2.040000000
H     6.305000000     0.966000000     0.281000000
C     3.781000000     2.920000000     1.204000000
H     3.900000000     3.616000000     0.378000000
C     2.853000000     3.128000000     2.157000000
C     2.130000000     4.458000000     2.193000000
H     2.798000000     5.142000000     1.665000000
H     1.958000000     4.811000000     3.211000000
C     0.841000000     4.357000000     1.380000000
C     0.803000000     4.780000000     0.026000000
H     1.745000000     5.055000000    -0.441000000
C    -0.306000000     3.888000000     1.979000000
C    -1.482000000     3.761000000     1.218000000
H    -2.326000000     3.382000000     1.788000000
C    -1.517000000     4.135000000    -0.117000000
O    -2.777000000     4.017000000    -0.735000000
C    -2.848000000     2.882000000    -1.609000000
C    -4.165000000     2.108000000    -1.501000000
C    -4.640000000     1.308000000    -2.542000000
H    -4.026000000     1.265000000    -3.438000000
C    -4.872000000     2.114000000    -0.309000000
H    -4.460000000     2.657000000     0.538000000
O    -2.600000000     3.356000000    -2.918000000
H    -2.122000000     2.119000000    -1.291000000
C    -0.402000000     4.702000000    -0.731000000
C    -0.489000000     5.225000000    -2.192000000
H     0.212000000     6.003000000    -2.501000000
H    -1.467000000     5.669000000    -2.387000000
C    -0.256000000     3.966000000    -2.989000000
C     1.037000000     3.633000000    -3.444000000
H     1.885000000     4.282000000    -3.238000000
C    -1.338000000     3.122000000    -3.335000000
C    -1.064000000     1.917000000    -4.053000000
H    -1.914000000     1.243000000    -4.125000000
C     0.217000000     1.504000000    -4.300000000
O     0.395000000     0.305000000    -4.766000000
C     0.902000000    -0.666000000    -3.826000000
C     0.235000000    -1.993000000    -4.073000000
C    -0.954000000    -2.026000000    -4.801000000
H    -1.347000000    -1.146000000    -5.303000000
C     0.601000000    -3.194000000    -3.428000000
H     1.478000000    -3.119000000    -2.790000000
O     2.348000000    -0.829000000    -4.038000000
H     0.667000000    -0.361000000    -2.796000000
C     1.279000000     2.395000000    -4.051000000
C     2.758000000     2.012000000    -4.231000000
H     3.452000000     2.781000000    -4.577000000
H     2.758000000     1.440000000    -5.162000000
C     3.396000000     1.110000000    -3.193000000
C     3.240000000    -0.233000000    -3.160000000
C     3.872000000    -1.064000000    -2.195000000
H     3.697000000    -2.133000000    -2.103000000
C     4.656000000    -0.526000000    -1.212000000
O     5.185000000    -1.314000000    -0.154000000
C     4.354000000    -1.297000000     1.035000000
H     3.366000000    -0.927000000     0.721000000
C     4.059000000    -2.643000000     1.677000000
C     3.941000000    -2.769000000     3.052000000
H     4.194000000    -1.913000000     3.673000000
C     3.801000000    -3.735000000     0.852000000
H     3.936000000    -3.670000000    -0.224000000
C     3.401000000    -4.932000000     1.399000000
O     3.278000000    -6.095000000     0.683000000
C     3.299000000    -5.043000000     2.782000000
H     2.972000000    -5.984000000     3.216000000
C     3.612000000    -3.988000000     3.576000000
O     3.566000000    -4.215000000     4.910000000
C     2.894000000    -3.291000000     5.740000000
C     1.559000000    -3.038000000     5.527000000
H     0.968000000    -3.562000000     4.782000000
C     3.603000000    -2.578000000     6.672000000
H     4.675000000    -2.702000000     6.804000000
C     2.900000000    -1.831000000     7.646000000
H     3.478000000    -1.303000000     8.400000000
C     1.528000000    -1.614000000     7.516000000
H     1.009000000    -0.878000000     8.124000000
C     0.882000000    -2.152000000     6.433000000
O    -0.411000000    -1.915000000     6.143000000
C    -0.878000000    -0.727000000     5.631000000
C    -2.296000000    -0.592000000     5.545000000
H    -2.943000000    -1.426000000     5.805000000
C    -2.902000000     0.496000000     4.876000000
O    -4.278000000     0.438000000     4.771000000
C    -5.078000000     1.329000000     4.150000000
C    -5.464000000     1.062000000     2.862000000
H    -5.098000000     0.159000000     2.380000000
C    -5.472000000     2.542000000     4.759000000
H    -5.084000000     2.765000000     5.750000000
C    -6.266000000     3.469000000     4.054000000
H    -6.580000000     4.418000000     4.482000000
C    -6.648000000     3.166000000     2.724000000
H    -7.267000000     3.885000000     2.193000000
C    -6.279000000     1.944000000     2.143000000
O    -6.856000000     1.560000000     0.924000000
C    -6.059000000     1.438000000    -0.189000000
C    -6.516000000     0.672000000    -1.223000000
H    -7.466000000     0.178000000    -1.033000000
C    -5.779000000     0.612000000    -2.396000000
O    -6.286000000    -0.029000000    -3.485000000
C    -5.481000000    -0.396000000    -4.572000000
C    -4.510000000    -1.349000000    -4.424000000
H    -4.319000000    -1.639000000    -3.394000000
C    -5.701000000     0.181000000    -5.828000000
H    -6.362000000     1.043000000    -5.850000000
C    -4.979000000    -0.259000000    -6.898000000
H    -5.151000000     0.251000000    -7.842000000
C    -4.092000000    -1.331000000    -6.801000000
H    -3.535000000    -1.754000000    -7.633000000
C    -3.806000000    -1.841000000    -5.551000000
O    -3.061000000    -3.007000000    -5.453000000
C    -1.778000000    -3.108000000    -4.875000000
C    -1.385000000    -4.309000000    -4.246000000
H    -1.989000000    -5.209000000    -4.317000000
C    -0.283000000    -4.261000000    -3.444000000
O     0.030000000    -5.473000000    -2.819000000
C     1.339000000    -5.820000000    -2.408000000
C     2.287000000    -6.211000000    -3.370000000
H     2.012000000    -6.334000000    -4.414000000
C     3.597000000    -6.503000000    -2.932000000
H     4.335000000    -6.726000000    -3.698000000
C     3.924000000    -6.432000000    -1.579000000
H     4.934000000    -6.664000000    -1.251000000
C     2.972000000    -5.978000000    -0.642000000
C     1.715000000    -5.572000000    -1.082000000
H     0.922000000    -5.278000000    -0.398000000
O    -5.219000000    -4.585000000     1.602000000
H    -4.355000000    -4.407000000     1.230000000
H    -5.114000000    -4.423000000     2.540000000
O    -5.243000000    -8.147000000    -0.353000000
H    -5.469000000    -8.981000000     0.057000000
H    -4.494000000    -8.351000000    -0.914000000
O     1.994000000    -6.527000000     5.721000000
H     2.626000000    -5.865000000     5.441000000
H     1.182000000    -6.287000000     5.274000000
O    -0.172000000    -6.234000000     3.787000000
H    -0.298000000    -7.172000000     3.645000000
H    -0.465000000    -5.827000000     2.971000000
O    -7.349000000    -3.142000000     0.286000000
H    -7.766000000    -3.238000000     1.142000000
H    -6.477000000    -3.519000000     0.401000000
O     0.034000000    -9.122000000    -2.143000000
H     0.986000000    -9.172000000    -2.233000000
H    -0.119000000    -9.156000000    -1.199000000
O    -6.879000000    -4.194000000    -2.261000000
H    -7.515000000    -3.811000000    -1.656000000
H    -6.028000000    -3.988000000    -1.876000000
O    -1.852000000   -10.386000000     2.407000000
H    -2.477000000   -11.087000000     2.590000000
H    -2.398000000    -9.627000000     2.198000000
O    -3.170000000    -3.435000000     3.845000000
H    -2.389000000    -3.626000000     4.364000000
H    -3.901000000    -3.605000000     4.440000000
O    -2.363000000    -7.362000000    -0.912000000
H    -2.213000000    -6.499000000    -0.525000000
H    -2.103000000    -7.262000000    -1.828000000
O    -5.204000000    -6.340000000    -2.905000000
H    -5.900000000    -5.685000000    -2.850000000
H    -5.372000000    -6.931000000    -2.171000000
O    -7.093000000    -6.476000000     1.118000000
H    -6.375000000    -5.843000000     1.103000000
H    -6.751000000    -7.236000000     0.647000000
O    -2.971000000    -7.437000000     4.902000000
H    -2.457000000    -6.762000000     5.345000000
H    -3.059000000    -7.120000000     4.003000000
O    -4.440000000    -3.888000000    -1.419000000
H    -4.454000000    -4.616000000    -2.040000000
H    -3.867000000    -4.187000000    -0.713000000
O    -0.207000000    -8.760000000     0.501000000
H    -0.313000000    -8.890000000     1.443000000
H    -0.944000000    -8.203000000     0.251000000
O     2.524000000    -9.505000000    -0.038000000
H     1.674000000    -9.068000000     0.017000000
H     2.673000000    -9.624000000    -0.976000000
O    -1.559000000    -5.479000000     5.977000000
H    -1.329000000    -5.395000000     6.902000000
H    -0.736000000    -5.706000000     5.545000000
O    -3.052000000    -7.026000000     2.155000000
H    -2.412000000    -6.338000000     1.971000000
H    -3.535000000    -7.129000000     1.336000000
O    -2.768000000    -1.180000000     2.259000000
H    -2.418000000    -1.445000000     1.409000000
H    -2.770000000    -1.985000000     2.779000000
