201
-1219.23649
C    -1.407000000     2.229000000     4.971000000
H    -1.820000000     3.158000000     4.585000000
C    -0.157000000     1.797000000     4.555000000
C     0.438000000     0.661000000     5.175000000
H     1.447000000     0.431000000     4.843000000
C     0.586000000     2.569000000     3.398000000
O    -0.025000000     3.813000000     3.060000000
H     0.407000000     2.057000000     2.440000000
O     2.044000000     2.611000000     3.537000000
C     2.895000000     2.408000000     2.465000000
C     3.478000000     1.193000000     2.285000000
H     3.234000000     0.370000000     2.952000000
C     4.229000000     0.832000000     1.189000000
O     4.634000000    -0.432000000     1.082000000
C     4.501000000     1.788000000     0.218000000
C     5.356000000     1.373000000    -0.944000000
H     5.947000000     2.193000000    -1.357000000
C     4.514000000     0.665000000    -2.030000000
C     3.845000000     1.409000000    -2.984000000
H     4.035000000     2.478000000    -3.018000000
H     6.097000000     0.612000000    -0.691000000
C     3.955000000     3.091000000     0.366000000
H     4.115000000     3.860000000    -0.386000000
C     3.099000000     3.376000000     1.448000000
C     2.395000000     4.692000000     1.518000000
H     3.034000000     5.444000000     1.051000000
H     2.347000000     4.904000000     2.588000000
C     1.020000000     4.643000000     0.919000000
C     0.901000000     4.886000000    -0.404000000
H     1.754000000     4.972000000    -1.072000000
C    -0.062000000     4.294000000     1.742000000
C    -1.358000000     4.351000000     1.206000000
H    -2.175000000     3.984000000     1.823000000
C    -1.565000000     4.649000000    -0.107000000
O    -2.787000000     4.427000000    -0.698000000
C    -2.925000000     3.121000000    -1.210000000
C    -4.080000000     2.303000000    -0.614000000
C    -4.668000000     1.353000000    -1.475000000
H    -4.453000000     1.396000000    -2.539000000
C    -4.539000000     2.423000000     0.692000000
H    -4.147000000     3.166000000     1.382000000
O    -2.839000000     3.187000000    -2.649000000
H    -2.048000000     2.544000000    -0.881000000
C    -0.404000000     4.911000000    -0.951000000
C    -0.683000000     5.094000000    -2.460000000
H     0.090000000     5.751000000    -2.864000000
H    -1.667000000     5.537000000    -2.630000000
C    -0.566000000     3.707000000    -3.164000000
C     0.612000000     3.315000000    -3.735000000
H     1.537000000     3.878000000    -3.644000000
C    -1.673000000     2.934000000    -3.252000000
C    -1.659000000     1.652000000    -3.797000000
H    -2.507000000     0.978000000    -3.895000000
C    -0.419000000     1.230000000    -4.343000000
O    -0.341000000    -0.113000000    -4.827000000
C     0.449000000    -1.083000000    -4.075000000
C    -0.295000000    -2.415000000    -4.031000000
C    -1.679000000    -2.412000000    -4.111000000
H    -2.139000000    -1.460000000    -4.365000000
C     0.291000000    -3.680000000    -3.737000000
H     1.364000000    -3.628000000    -3.570000000
O     1.804000000    -1.198000000    -4.625000000
H     0.511000000    -0.764000000    -3.025000000
C     0.711000000     2.034000000    -4.276000000
C     2.072000000     1.589000000    -4.885000000
H     2.643000000     2.446000000    -5.249000000
H     1.845000000     1.068000000    -5.818000000
C     2.977000000     0.828000000    -3.933000000
C     2.789000000    -0.550000000    -3.945000000
C     3.538000000    -1.306000000    -3.056000000
H     3.351000000    -2.364000000    -2.886000000
C     4.370000000    -0.682000000    -2.107000000
O     4.689000000    -1.528000000    -1.106000000
C     4.020000000    -1.350000000     0.129000000
H     3.055000000    -0.930000000    -0.190000000
C     3.899000000    -2.719000000     0.813000000
C     3.488000000    -2.786000000     2.138000000
H     3.517000000    -1.904000000     2.773000000
C     3.854000000    -3.907000000     0.093000000
H     4.035000000    -3.964000000    -0.977000000
C     3.626000000    -5.121000000     0.712000000
O     3.716000000    -6.284000000     0.048000000
C     3.102000000    -5.104000000     1.974000000
H     2.552000000    -5.938000000     2.403000000
C     3.081000000    -3.982000000     2.715000000
O     2.509000000    -4.148000000     3.997000000
C     2.642000000    -3.158000000     4.973000000
C     1.412000000    -2.629000000     5.416000000
H     0.410000000    -2.912000000     5.103000000
C     3.879000000    -2.757000000     5.511000000
H     4.776000000    -3.203000000     5.089000000
C     3.922000000    -1.893000000     6.595000000
H     4.899000000    -1.647000000     7.001000000
C     2.704000000    -1.305000000     7.057000000
H     2.723000000    -0.463000000     7.743000000
C     1.505000000    -1.638000000     6.420000000
O     0.348000000    -1.062000000     6.847000000
C    -0.247000000    -0.006000000     6.175000000
C    -1.484000000     0.484000000     6.627000000
H    -2.035000000    -0.075000000     7.379000000
C    -2.149000000     1.539000000     5.950000000
O    -3.317000000     2.051000000     6.400000000
C    -4.266000000     2.579000000     5.534000000
C    -4.578000000     1.793000000     4.420000000
H    -4.241000000     0.760000000     4.399000000
C    -4.707000000     3.891000000     5.619000000
H    -4.420000000     4.599000000     6.391000000
C    -5.558000000     4.375000000     4.617000000
H    -6.000000000     5.352000000     4.793000000
C    -6.042000000     3.526000000     3.624000000
H    -6.765000000     3.865000000     2.885000000
C    -5.476000000     2.281000000     3.493000000
O    -5.917000000     1.469000000     2.483000000
C    -5.514000000     1.542000000     1.150000000
C    -6.091000000     0.628000000     0.297000000
H    -6.967000000     0.112000000     0.682000000
C    -5.736000000     0.525000000    -1.049000000
O    -6.373000000    -0.393000000    -1.902000000
C    -5.789000000    -0.842000000    -3.115000000
C    -4.942000000    -1.941000000    -3.166000000
H    -4.662000000    -2.269000000    -2.168000000
C    -6.207000000    -0.266000000    -4.307000000
H    -7.045000000     0.426000000    -4.272000000
C    -5.688000000    -0.655000000    -5.523000000
H    -6.053000000    -0.289000000    -6.479000000
C    -4.781000000    -1.713000000    -5.537000000
H    -4.495000000    -2.145000000    -6.492000000
C    -4.417000000    -2.376000000    -4.350000000
O    -3.765000000    -3.553000000    -4.388000000
C    -2.393000000    -3.571000000    -4.192000000
C    -1.824000000    -4.782000000    -3.772000000
H    -2.418000000    -5.672000000    -3.579000000
C    -0.443000000    -4.825000000    -3.614000000
O     0.014000000    -6.021000000    -3.131000000
C     1.291000000    -6.431000000    -2.765000000
C     2.161000000    -6.996000000    -3.751000000
H     1.775000000    -7.110000000    -4.761000000
C     3.536000000    -7.344000000    -3.409000000
H     4.240000000    -7.570000000    -4.206000000
C     4.019000000    -7.039000000    -2.180000000
H     5.052000000    -7.242000000    -1.910000000
C     3.152000000    -6.526000000    -1.190000000
C     1.827000000    -6.328000000    -1.464000000
H     1.140000000    -6.129000000    -0.646000000
O    -3.103000000    -5.455000000     3.190000000
H    -4.001000000    -5.784000000     3.231000000
H    -2.910000000    -5.403000000     2.254000000
O    -5.734000000    -6.618000000     2.975000000
H    -5.935000000    -7.305000000     3.611000000
H    -6.552000000    -6.489000000     2.495000000
O     2.171000000    -9.100000000     0.757000000
H     2.374000000   -10.008000000     0.535000000
H     2.012000000    -8.677000000    -0.087000000
O    -5.780000000    -1.953000000     3.000000000
H    -5.050000000    -2.088000000     3.604000000
H    -5.524000000    -2.424000000     2.207000000
O    -3.300000000    -8.609000000    -3.782000000
H    -3.219000000    -7.934000000    -3.108000000
H    -4.080000000    -8.360000000    -4.278000000
O    -4.931000000    -3.451000000     1.056000000
H    -5.688000000    -3.647000000     0.503000000
H    -4.265000000    -4.082000000     0.781000000
O    -3.088000000    -9.704000000     2.388000000
H    -3.280000000   -10.476000000     1.856000000
H    -3.594000000    -9.001000000     1.982000000
O    -6.772000000    -5.889000000    -1.404000000
H    -7.627000000    -6.193000000    -1.706000000
H    -6.972000000    -5.191000000    -0.780000000
O    -4.368000000    -7.687000000     0.867000000
H    -4.050000000    -6.828000000     0.588000000
H    -4.991000000    -7.495000000     1.567000000
O     1.568000000    -6.863000000     4.966000000
H     1.695000000    -5.922000000     5.085000000
H     0.803000000    -6.931000000     4.394000000
O    -4.240000000    -6.611000000    -2.071000000
H    -5.097000000    -6.718000000    -1.658000000
H    -3.746000000    -6.064000000    -1.460000000
O    -1.200000000    -8.495000000     0.109000000
H    -1.970000000    -8.871000000     0.536000000
H    -1.213000000    -7.572000000     0.360000000
O    -0.481000000   -11.087000000     1.288000000
H    -0.460000000   -10.142000000     1.437000000
H    -0.979000000   -11.191000000     0.477000000
O    -5.177000000    -6.094000000    -4.486000000
H    -4.789000000    -6.237000000    -3.623000000
H    -4.947000000    -5.192000000    -4.706000000
O    -0.440000000    -6.388000000     3.312000000
H    -0.717000000    -6.469000000     2.399000000
H    -1.120000000    -5.853000000     3.722000000
O    -2.323000000    -5.159000000     6.150000000
H    -3.211000000    -4.885000000     6.377000000
H    -2.380000000    -5.416000000     5.229000000
O    -5.836000000    -9.959000000    -0.542000000
H    -5.338000000   -10.362000000    -1.253000000
H    -5.333000000    -9.179000000    -0.309000000
O    -1.024000000    -9.221000000    -2.520000000
H    -1.761000000    -8.928000000    -3.056000000
H    -1.154000000    -8.786000000    -1.677000000
O    -3.089000000    -2.479000000     4.178000000
H    -2.594000000    -2.091000000     3.457000000
H    -3.025000000    -3.423000000     4.032000000
