201
-1250.07200
C    -0.605000000     3.369000000     3.975000000
H    -1.056000000     3.776000000     3.074000000
C     0.648000000     2.813000000     3.797000000
C     1.229000000     2.069000000     4.817000000
H     2.212000000     1.618000000     4.711000000
C     1.414000000     3.021000000     2.527000000
O     1.038000000     4.300000000     1.987000000
H     1.055000000     2.202000000     1.886000000
O     2.792000000     2.964000000     2.775000000
C     3.596000000     2.376000000     1.808000000
C     3.901000000     1.019000000     2.061000000
H     3.672000000     0.551000000     3.016000000
C     4.362000000     0.236000000     0.990000000
O     4.562000000    -1.081000000     1.246000000
C     4.807000000     0.846000000    -0.211000000
C     5.327000000     0.012000000    -1.354000000
H     5.954000000     0.661000000    -1.970000000
C     4.238000000    -0.769000000    -2.164000000
C     3.683000000    -0.202000000    -3.341000000
H     3.970000000     0.796000000    -3.659000000
H     5.928000000    -0.752000000    -0.855000000
C     4.512000000     2.185000000    -0.415000000
H     4.856000000     2.685000000    -1.317000000
C     3.908000000     2.947000000     0.602000000
C     3.372000000     4.307000000     0.244000000
H     4.100000000     4.835000000    -0.376000000
H     3.397000000     4.952000000     1.125000000
C     1.960000000     4.305000000    -0.299000000
C     1.695000000     4.335000000    -1.682000000
H     2.513000000     4.462000000    -2.387000000
C     0.848000000     4.388000000     0.578000000
C    -0.413000000     4.276000000     0.077000000
H    -1.218000000     4.152000000     0.798000000
C    -0.655000000     4.375000000    -1.276000000
O    -1.884000000     4.260000000    -1.622000000
C    -2.300000000     2.946000000    -1.972000000
C    -3.637000000     2.546000000    -1.265000000
C    -4.391000000     1.563000000    -1.819000000
H    -4.101000000     1.006000000    -2.707000000
C    -4.085000000     3.176000000    -0.144000000
H    -3.596000000     4.080000000     0.211000000
O    -2.389000000     2.846000000    -3.382000000
H    -1.575000000     2.186000000    -1.646000000
C     0.381000000     4.411000000    -2.194000000
C     0.129000000     4.238000000    -3.676000000
H     1.014000000     4.676000000    -4.142000000
H    -0.708000000     4.861000000    -3.997000000
C    -0.113000000     2.738000000    -4.071000000
C     0.973000000     1.949000000    -4.481000000
H     1.959000000     2.362000000    -4.681000000
C    -1.396000000     2.186000000    -4.035000000
C    -1.654000000     0.827000000    -4.388000000
H    -2.626000000     0.360000000    -4.248000000
C    -0.520000000     0.040000000    -4.668000000
O    -0.740000000    -1.323000000    -4.782000000
C    -0.303000000    -2.187000000    -3.728000000
C    -1.234000000    -3.341000000    -3.447000000
C    -2.589000000    -3.184000000    -3.806000000
H    -2.873000000    -2.338000000    -4.426000000
C    -0.877000000    -4.490000000    -2.689000000
H     0.169000000    -4.541000000    -2.400000000
O     0.991000000    -2.746000000    -4.019000000
H    -0.287000000    -1.572000000    -2.816000000
C     0.720000000     0.610000000    -4.705000000
C     1.955000000    -0.201000000    -5.156000000
H     2.605000000     0.501000000    -5.682000000
H     1.710000000    -0.945000000    -5.917000000
C     2.698000000    -0.951000000    -4.083000000
C     2.146000000    -2.097000000    -3.521000000
C     2.675000000    -2.574000000    -2.312000000
H     2.300000000    -3.526000000    -1.944000000
C     3.718000000    -1.942000000    -1.688000000
O     4.266000000    -2.516000000    -0.595000000
C     3.686000000    -2.036000000     0.628000000
H     2.770000000    -1.466000000     0.415000000
C     3.258000000    -2.996000000     1.733000000
C     3.273000000    -2.609000000     3.115000000
H     3.643000000    -1.644000000     3.451000000
C     2.804000000    -4.284000000     1.377000000
H     2.750000000    -4.558000000     0.326000000
C     2.269000000    -5.050000000     2.403000000
O     1.566000000    -6.199000000     2.108000000
C     2.275000000    -4.698000000     3.704000000
H     1.827000000    -5.346000000     4.453000000
C     2.869000000    -3.559000000     4.052000000
O     2.753000000    -3.341000000     5.457000000
C     2.934000000    -2.077000000     5.980000000
C     1.830000000    -1.246000000     6.178000000
H     0.861000000    -1.630000000     5.872000000
C     4.202000000    -1.752000000     6.483000000
H     5.037000000    -2.418000000     6.281000000
C     4.394000000    -0.490000000     7.088000000
H     5.412000000    -0.197000000     7.328000000
C     3.283000000     0.351000000     7.217000000
H     3.448000000     1.318000000     7.685000000
C     2.016000000    -0.034000000     6.818000000
O     1.014000000     0.899000000     6.959000000
C     0.527000000     1.792000000     5.957000000
C    -0.725000000     2.340000000     6.139000000
H    -1.421000000     2.058000000     6.925000000
C    -1.284000000     3.089000000     5.128000000
O    -2.532000000     3.548000000     5.351000000
C    -3.357000000     4.173000000     4.473000000
C    -4.105000000     3.467000000     3.521000000
H    -4.164000000     2.386000000     3.424000000
C    -3.372000000     5.566000000     4.431000000
H    -2.712000000     6.106000000     5.107000000
C    -4.179000000     6.296000000     3.506000000
H    -4.162000000     7.381000000     3.441000000
C    -4.970000000     5.550000000     2.669000000
H    -5.492000000     6.050000000     1.858000000
C    -4.969000000     4.180000000     2.631000000
O    -5.672000000     3.497000000     1.610000000
C    -5.260000000     2.925000000     0.423000000
C    -6.064000000     1.954000000    -0.156000000
H    -7.102000000     1.797000000     0.123000000
C    -5.576000000     1.230000000    -1.224000000
O    -6.404000000     0.285000000    -1.826000000
C    -6.121000000    -0.488000000    -2.920000000
C    -5.730000000    -1.861000000    -2.679000000
H    -5.689000000    -2.333000000    -1.701000000
C    -6.235000000     0.004000000    -4.181000000
H    -6.568000000     1.039000000    -4.173000000
C    -5.961000000    -0.811000000    -5.276000000
H    -5.965000000    -0.493000000    -6.315000000
C    -5.637000000    -2.143000000    -5.090000000
H    -5.292000000    -2.775000000    -5.904000000
C    -5.403000000    -2.648000000    -3.788000000
O    -4.893000000    -3.945000000    -3.639000000
C    -3.540000000    -4.171000000    -3.385000000
C    -3.135000000    -5.350000000    -2.648000000
H    -3.786000000    -6.163000000    -2.334000000
C    -1.803000000    -5.490000000    -2.395000000
O    -1.459000000    -6.612000000    -1.688000000
C    -0.224000000    -6.900000000    -1.100000000
C     0.783000000    -7.534000000    -1.827000000
H     0.605000000    -7.855000000    -2.850000000
C     1.990000000    -7.785000000    -1.231000000
H     2.752000000    -8.312000000    -1.800000000
C     2.237000000    -7.324000000     0.018000000
H     3.235000000    -7.463000000     0.426000000
C     1.281000000    -6.682000000     0.769000000
C     0.027000000    -6.462000000     0.193000000
H    -0.713000000    -5.921000000     0.777000000
O    -2.322000000    -2.857000000     4.626000000
H    -2.055000000    -1.955000000     4.447000000
H    -3.274000000    -2.849000000     4.523000000
O    -2.318000000    -0.168000000     3.985000000
H    -1.843000000     0.644000000     4.164000000
H    -2.552000000    -0.109000000     3.059000000
O    -6.076000000    -3.833000000     5.315000000
H    -5.420000000    -3.881000000     4.618000000
H    -5.633000000    -4.191000000     6.085000000
O    -4.418000000    -7.655000000     3.232000000
H    -3.796000000    -8.383000000     3.246000000
H    -4.156000000    -7.132000000     2.474000000
O    -3.306000000    -6.796000000     0.636000000
H    -2.653000000    -7.108000000     0.009000000
H    -3.123000000    -5.861000000     0.726000000
O    -4.263000000     0.840000000     5.514000000
H    -4.779000000     0.198000000     6.002000000
H    -3.635000000     0.315000000     5.018000000
O    -5.900000000    -1.233000000     1.091000000
H    -6.811000000    -1.239000000     0.796000000
H    -5.499000000    -1.979000000     0.645000000
O    -4.383000000    -6.544000000     5.849000000
H    -3.709000000    -7.130000000     6.195000000
H    -4.373000000    -6.699000000     4.905000000
O    -1.518000000    -4.075000000     7.183000000
H    -1.893000000    -3.909000000     6.319000000
H    -2.126000000    -3.658000000     7.793000000
O    -9.123000000    -4.026000000     1.320000000
H    -9.408000000    -3.278000000     0.796000000
H    -8.540000000    -4.516000000     0.740000000
O    -5.527000000    -8.431000000    -0.377000000
H    -6.071000000    -8.474000000     0.409000000
H    -4.776000000    -7.895000000    -0.120000000
O    -7.514000000    -1.632000000     4.879000000
H    -6.813000000    -2.283000000     4.843000000
H    -7.173000000    -0.886000000     4.385000000
O    -6.329000000    -5.183000000     0.025000000
H    -5.589000000    -4.587000000    -0.093000000
H    -5.925000000    -6.040000000     0.164000000
O    -7.899000000    -4.849000000    -2.892000000
H    -8.755000000    -5.260000000    -2.773000000
H    -7.405000000    -5.093000000    -2.109000000
O    -6.221000000     0.345000000     3.828000000
H    -5.953000000     0.248000000     2.915000000
H    -5.458000000     0.728000000     4.262000000
O    -4.777000000    -3.532000000     3.204000000
H    -3.995000000    -3.853000000     2.755000000
H    -5.361000000    -3.256000000     2.499000000
O    -0.743000000    -7.883000000     3.323000000
H     0.161000000    -7.612000000     3.484000000
H    -1.252000000    -7.075000000     3.397000000
O    -1.742000000    -5.383000000     3.320000000
H    -2.195000000    -4.973000000     2.583000000
H    -1.542000000    -4.658000000     3.912000000
O    -3.578000000     0.125000000     1.649000000
H    -3.164000000     0.269000000     0.798000000
H    -4.391000000    -0.337000000     1.444000000
