201
-1269.78821
C    -2.955000000    -3.402000000    -1.908000000
H    -2.456000000    -3.004000000    -2.789000000
C    -3.841000000    -2.695000000    -1.209000000
C    -4.600000000    -3.278000000    -0.191000000
H    -5.376000000    -2.795000000     0.397000000
C    -3.921000000    -1.165000000    -1.502000000
O    -3.975000000    -0.812000000    -2.921000000
H    -3.063000000    -0.714000000    -0.981000000
O    -5.051000000    -0.525000000    -0.838000000
C    -4.751000000     0.548000000    -0.051000000
C    -4.358000000     0.376000000     1.244000000
H    -4.456000000    -0.596000000     1.722000000
C    -3.742000000     1.450000000     1.960000000
O    -3.423000000     1.208000000     3.288000000
C    -3.692000000     2.680000000     1.348000000
C    -3.226000000     3.902000000     2.158000000
H    -3.712000000     4.784000000     1.734000000
C    -1.666000000     4.029000000     2.108000000
C    -1.040000000     4.836000000     1.156000000
H    -1.611000000     5.520000000     0.533000000
H    -3.610000000     3.846000000     3.179000000
C    -4.185000000     2.873000000     0.063000000
H    -4.040000000     3.851000000    -0.390000000
C    -4.672000000     1.823000000    -0.673000000
C    -4.909000000     1.962000000    -2.185000000
H    -5.172000000     3.011000000    -2.337000000
H    -5.763000000     1.360000000    -2.504000000
C    -3.609000000     1.588000000    -2.852000000
C    -2.698000000     2.599000000    -3.035000000
H    -2.941000000     3.595000000    -2.675000000
C    -3.285000000     0.321000000    -3.345000000
C    -2.110000000     0.097000000    -3.978000000
H    -1.850000000    -0.946000000    -4.138000000
C    -1.281000000     1.180000000    -4.333000000
O    -0.041000000     0.867000000    -4.893000000
C     1.087000000     0.850000000    -4.057000000
C     1.946000000    -0.384000000    -4.337000000
C     3.261000000    -0.487000000    -3.938000000
H     3.803000000     0.374000000    -3.554000000
C     1.319000000    -1.620000000    -4.696000000
H     0.247000000    -1.693000000    -4.856000000
O     1.782000000     2.031000000    -4.270000000
H     0.787000000     0.837000000    -2.999000000
C    -1.600000000     2.401000000    -3.832000000
C    -0.697000000     3.551000000    -4.182000000
H    -1.264000000     4.460000000    -4.392000000
H    -0.312000000     3.241000000    -5.156000000
C     0.423000000     3.677000000    -3.146000000
C     0.288000000     4.607000000    -2.096000000
H    -0.697000000     5.065000000    -2.063000000
C     1.664000000     2.991000000    -3.277000000
C     2.650000000     3.144000000    -2.347000000
H     3.578000000     2.579000000    -2.311000000
C     2.476000000     4.031000000    -1.286000000
O     3.378000000     3.972000000    -0.293000000
C     2.977000000     3.076000000     0.814000000
C     4.123000000     2.207000000     1.286000000
C     5.263000000     2.012000000     0.498000000
H     5.438000000     2.577000000    -0.414000000
C     3.885000000     1.464000000     2.411000000
H     2.901000000     1.513000000     2.871000000
O     2.458000000     3.912000000     1.872000000
H     2.250000000     2.348000000     0.424000000
C     1.326000000     4.750000000    -1.186000000
C     1.032000000     5.625000000     0.072000000
H     0.338000000     6.371000000    -0.322000000
H     1.931000000     6.174000000     0.360000000
C     0.348000000     4.882000000     1.094000000
C     1.107000000     4.069000000     1.981000000
C     0.521000000     3.282000000     2.982000000
H     1.085000000     2.678000000     3.688000000
C    -0.884000000     3.271000000     3.016000000
O    -1.392000000     2.369000000     3.881000000
C    -1.992000000     1.076000000     3.443000000
H    -1.479000000     0.823000000     2.504000000
C    -1.686000000    -0.114000000     4.366000000
C    -2.429000000    -1.305000000     4.336000000
H    -3.270000000    -1.293000000     3.647000000
C    -0.647000000     0.006000000     5.308000000
H    -0.211000000     0.985000000     5.491000000
C    -0.190000000    -1.092000000     6.009000000
O     0.884000000    -0.986000000     6.912000000
C    -0.870000000    -2.301000000     5.864000000
H    -0.540000000    -3.136000000     6.477000000
C    -2.053000000    -2.386000000     5.151000000
O    -2.828000000    -3.582000000     5.227000000
C    -3.931000000    -3.804000000     4.483000000
C    -3.827000000    -4.402000000     3.223000000
H    -2.902000000    -4.768000000     2.785000000
C    -5.169000000    -3.454000000     5.078000000
H    -5.263000000    -2.989000000     6.056000000
C    -6.311000000    -3.898000000     4.398000000
H    -7.262000000    -3.740000000     4.901000000
C    -6.216000000    -4.326000000     3.115000000
H    -7.116000000    -4.602000000     2.571000000
C    -5.003000000    -4.612000000     2.497000000
O    -4.944000000    -5.200000000     1.281000000
C    -4.289000000    -4.613000000     0.229000000
C    -3.298000000    -5.280000000    -0.484000000
H    -3.046000000    -6.273000000    -0.121000000
C    -2.653000000    -4.707000000    -1.544000000
O    -1.692000000    -5.467000000    -2.239000000
C    -1.355000000    -5.221000000    -3.569000000
C    -0.073000000    -4.731000000    -3.896000000
H     0.639000000    -4.533000000    -3.099000000
C    -2.217000000    -5.507000000    -4.649000000
H    -3.221000000    -5.880000000    -4.467000000
C    -1.724000000    -5.272000000    -5.933000000
H    -2.284000000    -5.572000000    -6.815000000
C    -0.499000000    -4.703000000    -6.270000000
H    -0.230000000    -4.568000000    -7.315000000
C     0.342000000    -4.454000000    -5.220000000
O     1.668000000    -3.974000000    -5.406000000
C     2.093000000    -2.776000000    -4.934000000
C     3.442000000    -2.774000000    -4.540000000
H     4.064000000    -3.646000000    -4.723000000
C     4.028000000    -1.647000000    -4.002000000
O     5.335000000    -1.716000000    -3.585000000
C     6.187000000    -0.708000000    -3.138000000
C     6.238000000    -0.466000000    -1.725000000
H     5.460000000    -0.825000000    -1.056000000
C     7.150000000    -0.168000000    -3.996000000
H     7.257000000    -0.518000000    -5.019000000
C     8.084000000     0.736000000    -3.436000000
H     8.815000000     1.172000000    -4.112000000
C     8.186000000     1.043000000    -2.102000000
H     8.963000000     1.693000000    -1.707000000
C     7.193000000     0.514000000    -1.278000000
O     7.267000000     0.733000000     0.071000000
C     6.171000000     1.032000000     0.894000000
C     5.967000000     0.339000000     2.063000000
H     6.725000000    -0.382000000     2.359000000
C     4.824000000     0.494000000     2.800000000
O     4.569000000    -0.371000000     3.809000000
C     3.840000000    -0.086000000     4.987000000
C     4.432000000     0.768000000     5.894000000
H     5.384000000     1.249000000     5.687000000
C     3.812000000     1.099000000     7.071000000
H     4.192000000     1.842000000     7.767000000
C     2.590000000     0.531000000     7.392000000
H     2.070000000     0.855000000     8.290000000
C     2.080000000    -0.413000000     6.495000000
C     2.721000000    -0.792000000     5.321000000
H     2.308000000    -1.579000000     4.695000000
O     5.204000000    -2.568000000    -7.165000000
H     4.674000000    -2.645000000    -7.957000000
H     4.740000000    -1.927000000    -6.627000000
O     2.218000000    -4.135000000     4.982000000
H     2.652000000    -4.070000000     4.131000000
H     1.305000000    -4.330000000     4.771000000
O     7.339000000    -6.065000000    -2.679000000
H     6.572000000    -5.628000000    -2.309000000
H     7.987000000    -6.046000000    -1.974000000
O    -0.142000000    -7.207000000     4.166000000
H    -0.175000000    -7.426000000     5.097000000
H    -0.253000000    -6.257000000     4.139000000
O     7.392000000    -6.434000000     3.290000000
H     6.517000000    -6.643000000     2.964000000
H     7.962000000    -7.086000000     2.883000000
O     9.687000000    -3.319000000     0.987000000
H     8.787000000    -3.026000000     0.847000000
H    10.226000000    -2.631000000     0.598000000
O     2.249000000    -6.181000000    -2.544000000
H     2.895000000    -6.206000000    -3.249000000
H     2.460000000    -5.386000000    -2.053000000
O     6.219000000    -2.972000000     3.595000000
H     6.244000000    -3.229000000     2.673000000
H     5.448000000    -2.409000000     3.666000000
O     0.670000000    -8.426000000    -2.129000000
H     1.453000000    -7.904000000    -2.307000000
H     0.066000000    -7.814000000    -1.708000000
O    -0.254000000    -4.391000000     3.607000000
H    -1.116000000    -4.186000000     3.970000000
H    -0.200000000    -3.868000000     2.808000000
O     4.906000000    -8.975000000    -0.306000000
H     4.268000000    -9.013000000     0.407000000
H     5.553000000    -8.333000000    -0.014000000
O    -0.358000000    -2.292000000     1.768000000
H     0.102000000    -1.701000000     1.172000000
H    -0.504000000    -3.086000000     1.253000000
O    -0.454000000    -7.329000000     1.261000000
H    -1.234000000    -7.280000000     1.814000000
H    -0.504000000    -8.193000000     0.852000000
O     3.151000000    -4.082000000     2.332000000
H     3.665000000    -3.516000000     1.755000000
H     2.545000000    -4.534000000     1.745000000
O     4.436000000    -6.929000000     2.395000000
H     3.561000000    -7.166000000     2.701000000
H     4.369000000    -6.001000000     2.171000000
O     0.222000000    -4.653000000     0.592000000
H     0.573000000    -4.657000000    -0.298000000
H     0.042000000    -5.573000000     0.783000000
O     4.001000000    -6.431000000    -4.966000000
H     3.589000000    -6.000000000    -5.714000000
H     4.883000000    -6.061000000    -4.932000000
O     6.744000000    -3.122000000     0.506000000
H     5.983000000    -2.631000000     0.195000000
H     6.630000000    -3.998000000     0.139000000
O     5.318000000    -5.087000000    -1.177000000
H     4.603000000    -4.451000000    -1.171000000
H     4.931000000    -5.886000000    -0.821000000
