201
-1259.83440
C    -0.894000000     3.385000000     4.400000000
H    -1.066000000     4.341000000     3.914000000
C     0.266000000     2.590000000     4.155000000
C     0.487000000     1.458000000     4.936000000
H     1.413000000     0.899000000     4.827000000
C     1.221000000     2.896000000     2.945000000
O     1.073000000     4.181000000     2.511000000
H     0.904000000     2.072000000     2.289000000
O     2.632000000     2.753000000     3.180000000
C     3.371000000     2.145000000     2.136000000
C     3.780000000     0.815000000     2.275000000
H     3.523000000     0.238000000     3.159000000
C     4.426000000     0.189000000     1.179000000
O     4.631000000    -1.178000000     1.258000000
C     4.760000000     0.870000000    -0.006000000
C     5.470000000     0.163000000    -1.139000000
H     6.040000000     0.824000000    -1.795000000
C     4.558000000    -0.569000000    -2.100000000
C     3.875000000     0.179000000    -3.012000000
H     4.189000000     1.220000000    -3.006000000
H     6.292000000    -0.440000000    -0.749000000
C     4.296000000     2.168000000    -0.098000000
H     4.452000000     2.677000000    -1.046000000
C     3.700000000     2.827000000     0.940000000
C     3.423000000     4.322000000     0.819000000
H     4.204000000     4.793000000     0.219000000
H     3.426000000     4.782000000     1.809000000
C     1.990000000     4.445000000     0.317000000
C     1.763000000     4.628000000    -1.054000000
H     2.569000000     4.595000000    -1.783000000
C     0.917000000     4.365000000     1.210000000
C    -0.408000000     4.496000000     0.754000000
H    -1.148000000     4.482000000     1.550000000
C    -0.656000000     4.550000000    -0.645000000
O    -1.916000000     4.385000000    -1.107000000
C    -2.325000000     3.117000000    -1.571000000
C    -3.728000000     2.750000000    -0.933000000
C    -4.354000000     1.658000000    -1.551000000
H    -3.969000000     1.083000000    -2.389000000
C    -4.348000000     3.388000000     0.131000000
H    -3.829000000     4.144000000     0.714000000
O    -2.321000000     2.996000000    -3.028000000
H    -1.604000000     2.391000000    -1.168000000
C     0.447000000     4.623000000    -1.547000000
C     0.251000000     4.598000000    -3.068000000
H     1.025000000     5.137000000    -3.617000000
H    -0.618000000     5.150000000    -3.432000000
C     0.007000000     3.161000000    -3.621000000
C     1.139000000     2.484000000    -4.153000000
H     2.081000000     3.016000000    -4.054000000
C    -1.199000000     2.504000000    -3.638000000
C    -1.272000000     1.203000000    -4.148000000
H    -2.233000000     0.713000000    -4.013000000
C    -0.218000000     0.500000000    -4.611000000
O    -0.415000000    -0.816000000    -4.873000000
C     0.162000000    -1.833000000    -3.945000000
C    -0.746000000    -3.062000000    -3.904000000
C    -2.144000000    -2.842000000    -4.195000000
H    -2.517000000    -1.954000000    -4.699000000
C    -0.310000000    -4.299000000    -3.422000000
H     0.738000000    -4.543000000    -3.273000000
O     1.465000000    -2.270000000    -4.357000000
H     0.295000000    -1.380000000    -2.952000000
C     1.020000000     1.170000000    -4.633000000
C     2.336000000     0.467000000    -5.054000000
H     3.088000000     1.165000000    -5.429000000
H     2.145000000    -0.281000000    -5.826000000
C     2.912000000    -0.356000000    -3.873000000
C     2.503000000    -1.665000000    -3.673000000
C     3.171000000    -2.376000000    -2.661000000
H     2.698000000    -3.337000000    -2.475000000
C     4.165000000    -1.854000000    -1.813000000
O     4.477000000    -2.447000000    -0.612000000
C     3.755000000    -1.962000000     0.522000000
H     2.898000000    -1.411000000     0.109000000
C     3.280000000    -3.124000000     1.406000000
C     3.055000000    -2.873000000     2.769000000
H     3.274000000    -1.920000000     3.244000000
C     2.891000000    -4.333000000     0.799000000
H     3.087000000    -4.416000000    -0.267000000
C     2.363000000    -5.370000000     1.613000000
O     2.083000000    -6.647000000     1.091000000
C     2.275000000    -5.130000000     2.958000000
H     2.052000000    -6.015000000     3.547000000
C     2.613000000    -3.914000000     3.585000000
O     2.542000000    -3.812000000     4.991000000
C     2.438000000    -2.575000000     5.648000000
C     1.141000000    -2.063000000     5.871000000
H     0.299000000    -2.623000000     5.472000000
C     3.574000000    -1.982000000     6.186000000
H     4.523000000    -2.474000000     5.989000000
C     3.422000000    -0.822000000     6.935000000
H     4.273000000    -0.418000000     7.477000000
C     2.171000000    -0.313000000     7.140000000
H     1.986000000     0.598000000     7.703000000
C     1.007000000    -0.876000000     6.603000000
O    -0.212000000    -0.190000000     6.650000000
C    -0.412000000     0.977000000     5.859000000
C    -1.611000000     1.649000000     6.010000000
H    -2.272000000     1.389000000     6.833000000
C    -1.854000000     2.781000000     5.238000000
O    -2.963000000     3.540000000     5.553000000
C    -3.719000000     4.208000000     4.670000000
C    -4.426000000     3.472000000     3.758000000
H    -4.384000000     2.386000000     3.714000000
C    -3.846000000     5.587000000     4.713000000
H    -3.250000000     6.150000000     5.426000000
C    -4.619000000     6.277000000     3.701000000
H    -4.708000000     7.360000000     3.719000000
C    -5.333000000     5.509000000     2.783000000
H    -6.013000000     5.930000000     2.047000000
C    -5.192000000     4.119000000     2.756000000
O    -5.924000000     3.343000000     1.949000000
C    -5.366000000     2.733000000     0.865000000
C    -5.901000000     1.551000000     0.352000000
H    -6.679000000     0.998000000     0.872000000
C    -5.445000000     1.087000000    -0.929000000
O    -5.916000000    -0.132000000    -1.300000000
C    -5.855000000    -0.688000000    -2.533000000
C    -5.262000000    -1.954000000    -2.750000000
H    -5.017000000    -2.475000000    -1.829000000
C    -6.393000000     0.067000000    -3.622000000
H    -6.868000000     1.036000000    -3.493000000
C    -6.163000000    -0.424000000    -4.929000000
H    -6.649000000     0.116000000    -5.737000000
C    -5.480000000    -1.605000000    -5.196000000
H    -5.215000000    -1.972000000    -6.184000000
C    -5.079000000    -2.391000000    -4.062000000
O    -4.375000000    -3.615000000    -4.330000000
C    -3.045000000    -3.841000000    -4.073000000
C    -2.598000000    -5.102000000    -3.514000000
H    -3.307000000    -5.920000000    -3.408000000
C    -1.277000000    -5.255000000    -3.130000000
O    -0.955000000    -6.501000000    -2.593000000
C     0.317000000    -6.885000000    -2.096000000
C     1.238000000    -7.552000000    -2.904000000
H     1.001000000    -7.897000000    -3.907000000
C     2.499000000    -7.874000000    -2.401000000
H     3.158000000    -8.421000000    -3.071000000
C     2.800000000    -7.694000000    -1.028000000
H     3.740000000    -8.081000000    -0.642000000
C     1.838000000    -6.998000000    -0.225000000
C     0.609000000    -6.700000000    -0.763000000
H    -0.167000000    -6.305000000    -0.113000000
O    -4.112000000     0.142000000     5.107000000
H    -4.406000000    -0.109000000     4.232000000
H    -3.744000000    -0.660000000     5.476000000
O    -2.216000000    -1.863000000     5.738000000
H    -1.589000000    -1.192000000     6.008000000
H    -1.947000000    -2.098000000     4.850000000
O    -5.129000000     1.692000000     7.051000000
H    -4.888000000     1.337000000     6.195000000
H    -4.559000000     1.236000000     7.669000000
O    -1.357000000    -5.067000000     2.748000000
H    -0.989000000    -5.718000000     3.346000000
H    -1.676000000    -5.578000000     2.004000000
O    -9.710000000    -4.677000000     1.221000000
H    -9.714000000    -4.276000000     0.353000000
H    -9.120000000    -4.128000000     1.737000000
O    -3.894000000    -4.378000000     3.336000000
H    -3.005000000    -4.486000000     2.999000000
H    -4.401000000    -4.075000000     2.583000000
O    -5.153000000    -4.659000000     0.027000000
H    -5.334000000    -3.820000000     0.450000000
H    -5.935000000    -5.186000000     0.195000000
O    -3.212000000    -6.367000000     0.901000000
H    -3.185000000    -7.080000000     0.263000000
H    -3.890000000    -5.777000000     0.572000000
O    -9.630000000     1.357000000     2.224000000
H    -9.013000000     0.962000000     2.841000000
H    -9.503000000     0.866000000     1.412000000
O    -7.539000000    -6.359000000     1.036000000
H    -7.316000000    -6.306000000     1.965000000
H    -8.341000000    -5.843000000     0.952000000
O    -5.918000000    -2.273000000     4.796000000
H    -5.725000000    -2.017000000     3.894000000
H    -5.164000000    -2.798000000     5.063000000
O    -8.508000000    -4.159000000    -1.621000000
H    -7.822000000    -4.505000000    -2.193000000
H    -8.056000000    -3.534000000    -1.055000000
O    -8.188000000    -0.136000000     6.258000000
H    -8.369000000     0.098000000     5.347000000
H    -7.456000000    -0.752000000     6.205000000
O    -7.891000000    -1.996000000    -0.021000000
H    -7.060000000    -1.521000000    -0.033000000
H    -7.965000000    -2.327000000     0.874000000
O   -10.167000000    -0.667000000    -1.344000000
H    -9.589000000    -0.585000000    -2.103000000
H    -9.572000000    -0.763000000    -0.600000000
O    -8.026000000    -4.665000000     4.565000000
H    -7.222000000    -5.158000000     4.401000000
H    -8.518000000    -5.208000000     5.182000000
O    -7.567000000    -3.298000000     2.376000000
H    -7.680000000    -3.647000000     3.260000000
H    -6.652000000    -3.021000000     2.343000000
O    -7.589000000     0.445000000     3.650000000
H    -6.862000000    -0.112000000     3.372000000
H    -7.201000000     1.313000000     3.755000000
O    -1.186000000    -2.334000000     3.380000000
H    -1.070000000    -3.266000000     3.191000000
H    -0.810000000    -1.888000000     2.621000000
