201
-1270.25931
C    -3.310000000    -3.778000000    -1.543000000
H    -3.329000000    -3.445000000    -2.578000000
C    -3.782000000    -2.916000000    -0.510000000
C    -3.750000000    -3.448000000     0.772000000
H    -3.999000000    -2.862000000     1.652000000
C    -3.958000000    -1.479000000    -0.778000000
O    -4.386000000    -1.179000000    -2.162000000
H    -2.985000000    -1.029000000    -0.535000000
O    -4.866000000    -0.951000000     0.227000000
C    -4.652000000     0.189000000     0.876000000
C    -3.859000000     0.167000000     2.033000000
H    -3.565000000    -0.730000000     2.570000000
C    -3.293000000     1.335000000     2.573000000
O    -2.633000000     1.278000000     3.828000000
C    -3.501000000     2.582000000     1.971000000
C    -2.970000000     3.912000000     2.593000000
H    -3.650000000     4.689000000     2.238000000
C    -1.477000000     4.138000000     2.405000000
C    -0.974000000     4.774000000     1.250000000
H    -1.752000000     5.116000000     0.573000000
H    -3.125000000     3.887000000     3.673000000
C    -4.161000000     2.630000000     0.699000000
H    -4.304000000     3.563000000     0.159000000
C    -4.704000000     1.444000000     0.153000000
C    -5.207000000     1.493000000    -1.323000000
H    -5.885000000     2.343000000    -1.419000000
H    -5.940000000     0.697000000    -1.470000000
C    -4.175000000     1.259000000    -2.382000000
C    -3.445000000     2.298000000    -2.898000000
H    -3.611000000     3.317000000    -2.558000000
C    -3.806000000    -0.091000000    -2.759000000
C    -2.746000000    -0.361000000    -3.513000000
H    -2.454000000    -1.404000000    -3.607000000
C    -1.966000000     0.686000000    -4.029000000
O    -0.855000000     0.308000000    -4.761000000
C     0.378000000     0.399000000    -4.124000000
C     1.201000000    -0.823000000    -4.599000000
C     2.597000000    -0.718000000    -4.562000000
H     3.044000000     0.250000000    -4.352000000
C     0.590000000    -2.073000000    -4.967000000
H    -0.492000000    -2.153000000    -5.024000000
O     0.977000000     1.637000000    -4.569000000
H     0.279000000     0.337000000    -3.030000000
C    -2.375000000     2.019000000    -3.790000000
C    -1.476000000     3.156000000    -4.204000000
H    -2.108000000     4.046000000    -4.188000000
H    -1.176000000     3.000000000    -5.242000000
C    -0.195000000     3.385000000    -3.422000000
C    -0.201000000     4.329000000    -2.389000000
H    -1.073000000     4.937000000    -2.162000000
C     0.997000000     2.674000000    -3.666000000
C     2.063000000     2.787000000    -2.816000000
H     2.875000000     2.069000000    -2.892000000
C     2.121000000     3.788000000    -1.884000000
O     3.133000000     3.733000000    -0.910000000
C     2.826000000     3.034000000     0.379000000
C     3.985000000     2.041000000     0.697000000
C     4.533000000     1.192000000    -0.322000000
H     4.208000000     1.313000000    -1.352000000
C     4.382000000     1.767000000     1.988000000
H     3.877000000     2.255000000     2.818000000
O     2.590000000     3.975000000     1.404000000
H     1.892000000     2.470000000     0.236000000
C     0.950000000     4.475000000    -1.600000000
C     0.862000000     5.414000000    -0.386000000
H     0.291000000     6.290000000    -0.702000000
H     1.895000000     5.749000000    -0.275000000
C     0.421000000     4.853000000     0.927000000
C     1.249000000     4.172000000     1.802000000
C     0.822000000     3.542000000     2.961000000
H     1.511000000     3.064000000     3.653000000
C    -0.517000000     3.544000000     3.265000000
O    -0.880000000     2.708000000     4.306000000
C    -1.180000000     1.359000000     3.858000000
H    -0.658000000     1.166000000     2.910000000
C    -0.716000000     0.318000000     4.867000000
C    -1.446000000    -0.880000000     4.964000000
H    -2.402000000    -0.948000000     4.452000000
C     0.466000000     0.455000000     5.608000000
H     1.038000000     1.362000000     5.430000000
C     0.980000000    -0.613000000     6.386000000
O     2.317000000    -0.498000000     6.844000000
C     0.258000000    -1.823000000     6.493000000
H     0.749000000    -2.629000000     7.033000000
C    -0.917000000    -1.969000000     5.738000000
O    -1.514000000    -3.150000000     5.848000000
C    -2.616000000    -3.462000000     5.161000000
C    -2.436000000    -4.313000000     4.060000000
H    -1.405000000    -4.451000000     3.744000000
C    -3.854000000    -3.239000000     5.668000000
H    -4.020000000    -2.644000000     6.562000000
C    -4.961000000    -3.631000000     4.976000000
H    -5.961000000    -3.344000000     5.291000000
C    -4.835000000    -4.358000000     3.819000000
H    -5.662000000    -4.586000000     3.152000000
C    -3.568000000    -4.706000000     3.350000000
O    -3.297000000    -5.355000000     2.197000000
C    -3.377000000    -4.785000000     0.959000000
C    -2.968000000    -5.618000000    -0.032000000
H    -2.650000000    -6.652000000     0.068000000
C    -2.916000000    -5.080000000    -1.331000000
O    -2.578000000    -5.831000000    -2.438000000
C    -2.188000000    -5.481000000    -3.655000000
C    -0.858000000    -5.150000000    -3.825000000
H    -0.251000000    -5.342000000    -2.943000000
C    -3.128000000    -5.379000000    -4.656000000
H    -4.140000000    -5.625000000    -4.344000000
C    -2.750000000    -4.975000000    -5.910000000
H    -3.416000000    -4.998000000    -6.769000000
C    -1.406000000    -4.634000000    -6.102000000
H    -1.146000000    -4.131000000    -7.030000000
C    -0.451000000    -4.755000000    -5.085000000
O     0.899000000    -4.484000000    -5.321000000
C     1.462000000    -3.177000000    -5.259000000
C     2.800000000    -3.032000000    -5.299000000
H     3.417000000    -3.919000000    -5.418000000
C     3.345000000    -1.814000000    -5.062000000
O     4.707000000    -1.669000000    -5.159000000
C     5.416000000    -0.676000000    -4.512000000
C     5.534000000    -0.839000000    -3.112000000
H     5.053000000    -1.676000000    -2.612000000
C     6.019000000     0.405000000    -5.236000000
H     5.841000000     0.506000000    -6.304000000
C     6.742000000     1.333000000    -4.465000000
H     7.027000000     2.243000000    -4.986000000
C     6.916000000     1.185000000    -3.086000000
H     7.358000000     2.009000000    -2.533000000
C     6.261000000     0.111000000    -2.405000000
O     6.433000000    -0.117000000    -1.044000000
C     5.676000000     0.441000000    -0.050000000
C     6.095000000     0.348000000     1.287000000
H     6.850000000    -0.412000000     1.469000000
C     5.430000000     0.922000000     2.321000000
O     5.724000000     0.615000000     3.610000000
C     4.918000000     0.926000000     4.715000000
C     5.177000000     2.130000000     5.406000000
H     5.970000000     2.778000000     5.044000000
C     4.406000000     2.492000000     6.494000000
H     4.421000000     3.534000000     6.803000000
C     3.373000000     1.666000000     6.982000000
H     2.687000000     1.827000000     7.809000000
C     3.210000000     0.407000000     6.325000000
C     3.904000000     0.118000000     5.172000000
H     3.786000000    -0.815000000     4.626000000
O     6.388000000    -6.347000000    -6.408000000
H     6.858000000    -6.136000000    -7.215000000
H     6.970000000    -6.948000000    -5.943000000
O     2.060000000    -4.009000000     2.125000000
H     2.871000000    -3.728000000     1.701000000
H     2.317000000    -4.211000000     3.024000000
O     7.536000000    -5.479000000     0.201000000
H     7.235000000    -5.430000000    -0.706000000
H     6.838000000    -5.946000000     0.661000000
O     6.674000000    -4.275000000    -2.109000000
H     5.819000000    -3.952000000    -1.824000000
H     6.670000000    -4.158000000    -3.059000000
O     3.389000000    -6.085000000     0.563000000
H     2.563000000    -5.600000000     0.582000000
H     3.995000000    -5.508000000     0.098000000
O     8.627000000    -2.796000000    -0.122000000
H     7.873000000    -2.345000000    -0.503000000
H     8.517000000    -3.710000000    -0.382000000
O     1.830000000    -6.422000000    -2.367000000
H     2.027000000    -6.769000000    -3.236000000
H     2.366000000    -5.632000000    -2.297000000
O     3.256000000    -4.987000000     4.507000000
H     3.398000000    -5.769000000     3.972000000
H     3.057000000    -5.327000000     5.379000000
O     5.854000000    -7.712000000     0.519000000
H     5.841000000    -8.603000000     0.868000000
H     5.314000000    -7.756000000    -0.270000000
O     5.682000000    -3.325000000     4.291000000
H     4.903000000    -3.818000000     4.547000000
H     5.563000000    -3.157000000     3.356000000
O     4.540000000    -8.932000000    -4.069000000
H     4.473000000    -8.093000000    -3.613000000
H     4.714000000    -8.695000000    -4.980000000
O    -0.622000000    -6.666000000     2.038000000
H    -0.833000000    -5.946000000     1.443000000
H    -0.463000000    -7.414000000     1.462000000
O     0.205000000    -7.901000000    -0.543000000
H     0.734000000    -8.694000000    -0.632000000
H     0.424000000    -7.379000000    -1.316000000
O    -0.469000000    -3.893000000     1.236000000
H     0.339000000    -4.022000000     1.732000000
H    -0.298000000    -3.122000000     0.694000000
O     4.137000000    -6.893000000     2.987000000
H     4.021000000    -6.665000000     2.064000000
H     4.497000000    -7.780000000     2.972000000
O     3.257000000    -8.534000000    -0.619000000
H     3.103000000    -7.916000000     0.095000000
H     3.043000000    -8.042000000    -1.412000000
O     6.564000000    -4.231000000    -4.713000000
H     6.123000000    -3.476000000    -5.104000000
H     6.462000000    -4.929000000    -5.360000000
O     5.845000000    -3.196000000     1.503000000
H     5.323000000    -3.077000000     0.709000000
H     6.624000000    -3.669000000     1.210000000
O     5.158000000    -6.455000000    -2.938000000
H     4.607000000    -5.697000000    -2.745000000
H     5.877000000    -6.101000000    -3.462000000
