201
-1246.40052
C    -2.765000000     3.026000000     3.733000000
H    -2.763000000     4.031000000     3.320000000
C    -1.525000000     2.415000000     3.848000000
C    -1.442000000     1.239000000     4.599000000
H    -0.493000000     0.717000000     4.695000000
C    -0.334000000     3.039000000     3.162000000
O    -0.640000000     4.308000000     2.681000000
H    -0.078000000     2.453000000     2.267000000
O     0.839000000     3.132000000     3.972000000
C     2.145000000     2.889000000     3.464000000
C     2.613000000     1.622000000     3.644000000
H     2.212000000     0.992000000     4.433000000
C     3.590000000     1.115000000     2.848000000
O     3.969000000    -0.217000000     3.063000000
C     4.259000000     1.881000000     1.934000000
C     5.420000000     1.360000000     1.028000000
H     6.007000000     2.213000000     0.682000000
C     5.057000000     0.418000000    -0.083000000
C     4.950000000     1.023000000    -1.348000000
H     5.153000000     2.090000000    -1.391000000
H     5.993000000     0.727000000     1.710000000
C     3.826000000     3.198000000     1.738000000
H     4.278000000     3.836000000     0.983000000
C     2.713000000     3.672000000     2.453000000
C     2.086000000     5.009000000     2.024000000
H     2.845000000     5.725000000     1.700000000
H     1.629000000     5.539000000     2.863000000
C     1.005000000     4.708000000     1.027000000
C     1.301000000     4.757000000    -0.296000000
H     2.330000000     4.928000000    -0.602000000
C    -0.299000000     4.510000000     1.406000000
C    -1.286000000     4.106000000     0.490000000
H    -2.241000000     3.743000000     0.862000000
C    -0.995000000     4.234000000    -0.866000000
O    -1.990000000     3.939000000    -1.758000000
C    -1.919000000     2.608000000    -2.345000000
C    -3.317000000     1.920000000    -2.342000000
C    -3.690000000     1.182000000    -3.515000000
H    -3.044000000     1.100000000    -4.385000000
C    -4.203000000     1.973000000    -1.222000000
H    -3.815000000     2.512000000    -0.362000000
O    -1.273000000     2.731000000    -3.608000000
H    -1.283000000     2.033000000    -1.656000000
C     0.325000000     4.561000000    -1.284000000
C     0.757000000     4.614000000    -2.769000000
H     1.621000000     5.262000000    -2.930000000
H    -0.073000000     5.046000000    -3.331000000
C     1.083000000     3.243000000    -3.232000000
C     2.411000000     2.787000000    -3.296000000
H     3.211000000     3.374000000    -2.852000000
C     0.075000000     2.443000000    -3.771000000
C     0.394000000     1.247000000    -4.442000000
H    -0.352000000     0.586000000    -4.876000000
C     1.678000000     0.810000000    -4.470000000
O     1.928000000    -0.523000000    -4.877000000
C     2.042000000    -1.448000000    -3.761000000
C     1.240000000    -2.700000000    -4.016000000
C    -0.086000000    -2.704000000    -4.459000000
H    -0.474000000    -1.712000000    -4.680000000
C     1.667000000    -3.920000000    -3.507000000
H     2.669000000    -4.007000000    -3.094000000
O     3.415000000    -1.757000000    -3.415000000
H     1.528000000    -1.033000000    -2.881000000
C     2.661000000     1.533000000    -3.856000000
C     4.068000000     1.106000000    -3.718000000
H     4.676000000     2.008000000    -3.812000000
H     4.450000000     0.548000000    -4.576000000
C     4.398000000     0.344000000    -2.439000000
C     4.003000000    -0.990000000    -2.321000000
C     4.149000000    -1.634000000    -1.088000000
H     3.833000000    -2.669000000    -0.990000000
C     4.637000000    -0.971000000     0.029000000
O     4.711000000    -1.616000000     1.242000000
C     3.561000000    -1.199000000     2.042000000
H     2.847000000    -0.795000000     1.309000000
C     3.024000000    -2.490000000     2.619000000
C     2.597000000    -2.529000000     3.938000000
H     2.700000000    -1.635000000     4.548000000
C     2.837000000    -3.736000000     1.950000000
H     3.165000000    -3.807000000     0.916000000
C     2.201000000    -4.867000000     2.541000000
O     1.951000000    -6.052000000     1.887000000
C     1.702000000    -4.716000000     3.792000000
H     1.121000000    -5.530000000     4.218000000
C     1.949000000    -3.611000000     4.503000000
O     1.414000000    -3.502000000     5.725000000
C     0.738000000    -2.360000000     6.242000000
C    -0.525000000    -1.928000000     5.666000000
H    -1.055000000    -2.493000000     4.904000000
C     1.369000000    -1.826000000     7.388000000
H     2.402000000    -2.062000000     7.632000000
C     0.805000000    -0.643000000     7.859000000
H     1.280000000    -0.114000000     8.682000000
C    -0.502000000    -0.254000000     7.407000000
H    -0.997000000     0.617000000     7.830000000
C    -1.157000000    -0.929000000     6.391000000
O    -2.432000000    -0.446000000     6.016000000
C    -2.561000000     0.591000000     5.086000000
C    -3.827000000     1.166000000     4.981000000
H    -4.721000000     0.654000000     5.328000000
C    -3.865000000     2.415000000     4.347000000
O    -5.098000000     2.976000000     4.221000000
C    -5.677000000     3.148000000     3.001000000
C    -5.634000000     2.143000000     1.955000000
H    -5.093000000     1.218000000     2.136000000
C    -6.524000000     4.232000000     2.864000000
H    -6.558000000     5.023000000     3.608000000
C    -7.261000000     4.368000000     1.687000000
H    -7.937000000     5.209000000     1.555000000
C    -7.170000000     3.419000000     0.619000000
H    -7.834000000     3.620000000    -0.217000000
C    -6.342000000     2.312000000     0.772000000
O    -6.218000000     1.291000000    -0.125000000
C    -5.446000000     1.313000000    -1.234000000
C    -5.828000000     0.667000000    -2.381000000
H    -6.823000000     0.230000000    -2.390000000
C    -5.001000000     0.589000000    -3.518000000
O    -5.384000000    -0.211000000    -4.633000000
C    -4.574000000    -1.077000000    -5.379000000
C    -3.684000000    -1.997000000    -4.772000000
H    -3.679000000    -2.020000000    -3.685000000
C    -4.803000000    -1.060000000    -6.808000000
H    -5.536000000    -0.419000000    -7.291000000
C    -4.001000000    -1.983000000    -7.577000000
H    -4.166000000    -2.072000000    -8.648000000
C    -3.177000000    -2.919000000    -6.955000000
H    -2.761000000    -3.716000000    -7.565000000
C    -2.899000000    -2.800000000    -5.578000000
O    -2.174000000    -3.797000000    -4.894000000
C    -0.872000000    -3.876000000    -4.584000000
C    -0.395000000    -5.119000000    -4.144000000
H    -0.913000000    -6.074000000    -4.172000000
C     0.868000000    -5.122000000    -3.492000000
O     1.443000000    -6.296000000    -3.001000000
C     2.091000000    -6.429000000    -1.772000000
C     3.203000000    -7.318000000    -1.878000000
H     3.532000000    -7.755000000    -2.818000000
C     3.902000000    -7.582000000    -0.681000000
H     4.679000000    -8.331000000    -0.811000000
C     3.523000000    -7.091000000     0.567000000
H     4.092000000    -7.336000000     1.460000000
C     2.358000000    -6.254000000     0.605000000
C     1.613000000    -5.906000000    -0.585000000
H     0.637000000    -5.428000000    -0.577000000
O    -2.851000000    -3.347000000     3.335000000
H    -2.812000000    -2.467000000     2.960000000
H    -2.437000000    -3.905000000     2.677000000
O     1.842000000    -9.241000000     2.143000000
H     1.471000000    -8.360000000     2.090000000
H     1.887000000    -9.426000000     3.081000000
O    -4.973000000    -7.346000000    -3.370000000
H    -4.331000000    -7.139000000    -2.691000000
H    -5.152000000    -6.506000000    -3.794000000
O    -3.563000000    -3.758000000     6.179000000
H    -3.102000000    -3.740000000     5.340000000
H    -3.806000000    -4.676000000     6.300000000
O    -2.899000000    -6.891000000    -1.740000000
H    -2.858000000    -6.104000000    -1.197000000
H    -2.164000000    -7.427000000    -1.441000000
O    -5.662000000    -1.376000000     2.906000000
H    -5.852000000    -2.314000000     2.934000000
H    -4.998000000    -1.286000000     2.223000000
O    -2.093000000    -8.094000000     5.028000000
H    -2.506000000    -8.957000000     4.995000000
H    -2.094000000    -7.793000000     4.120000000
O     0.643000000   -10.000000000    -0.603000000
H     0.172000000   -10.760000000    -0.260000000
H     1.019000000    -9.582000000     0.171000000
O    -5.604000000    -2.053000000     5.644000000
H    -4.885000000    -2.595000000     5.967000000
H    -5.460000000    -2.001000000     4.700000000
O    -0.891000000    -7.038000000     2.313000000
H    -1.377000000    -6.330000000     1.891000000
H    -0.036000000    -6.657000000     2.511000000
O    -6.830000000    -7.805000000     1.154000000
H    -7.071000000    -7.038000000     0.634000000
H    -6.526000000    -7.445000000     1.987000000
O    -3.416000000    -8.151000000     2.397000000
H    -3.550000000    -8.873000000     1.784000000
H    -2.486000000    -7.939000000     2.318000000
O    -3.253000000    -0.741000000     1.509000000
H    -3.758000000    -0.722000000     0.696000000
H    -2.350000000    -0.883000000     1.226000000
O    -3.657000000    -4.137000000    -2.449000000
H    -2.975000000    -4.523000000    -1.900000000
H    -3.275000000    -4.115000000    -3.327000000
O    -6.172000000    -4.004000000     3.016000000
H    -5.518000000    -4.541000000     2.569000000
H    -7.012000000    -4.386000000     2.761000000
O    -6.231000000    -4.043000000    -1.313000000
H    -5.492000000    -4.165000000    -1.909000000
H    -5.831000000    -3.961000000    -0.448000000
O    -6.292000000    -7.211000000     3.769000000
H    -6.098000000    -7.691000000     4.575000000
H    -5.444000000    -6.873000000     3.482000000
O    -4.441000000    -5.810000000     1.627000000
H    -3.549000000    -5.465000000     1.583000000
H    -4.328000000    -6.756000000     1.715000000
O    -3.674000000    -1.566000000    -1.121000000
H    -3.822000000    -2.511000000    -1.131000000
H    -3.826000000    -1.290000000    -2.025000000
