201
-1248.37689
C    -2.620000000     3.311000000     3.228000000
H    -2.708000000     3.887000000     2.310000000
C    -1.375000000     3.058000000     3.667000000
C    -1.210000000     2.479000000     4.903000000
H    -0.241000000     2.379000000     5.385000000
C    -0.229000000     3.430000000     2.733000000
O    -0.438000000     4.634000000     2.017000000
H    -0.142000000     2.661000000     1.952000000
O     1.004000000     3.480000000     3.501000000
C     2.127000000     2.925000000     2.958000000
C     2.401000000     1.625000000     3.410000000
H     1.748000000     1.183000000     4.158000000
C     3.464000000     0.999000000     2.775000000
O     3.688000000    -0.225000000     3.164000000
C     4.227000000     1.570000000     1.737000000
C     5.372000000     0.843000000     1.095000000
H     6.084000000     1.499000000     0.588000000
C     4.896000000    -0.093000000     0.027000000
C     4.750000000     0.401000000    -1.287000000
H     4.898000000     1.474000000    -1.384000000
H     5.894000000     0.299000000     1.884000000
C     3.906000000     2.877000000     1.377000000
H     4.485000000     3.471000000     0.675000000
C     2.810000000     3.522000000     1.937000000
C     2.378000000     4.817000000     1.280000000
H     3.262000000     5.345000000     0.917000000
H     2.209000000     5.512000000     2.104000000
C     1.227000000     4.570000000     0.301000000
C     1.501000000     4.533000000    -1.062000000
H     2.519000000     4.692000000    -1.410000000
C    -0.145000000     4.474000000     0.680000000
C    -1.111000000     4.185000000    -0.252000000
H    -2.155000000     4.178000000     0.049000000
C    -0.773000000     4.168000000    -1.611000000
O    -1.813000000     3.851000000    -2.509000000
C    -1.750000000     2.470000000    -2.941000000
C    -3.143000000     1.758000000    -2.857000000
C    -3.408000000     0.587000000    -3.615000000
H    -2.604000000     0.180000000    -4.224000000
C    -4.188000000     2.244000000    -2.058000000
H    -4.073000000     3.202000000    -1.557000000
O    -1.122000000     2.318000000    -4.266000000
H    -1.199000000     1.873000000    -2.200000000
C     0.554000000     4.218000000    -2.007000000
C     0.916000000     4.111000000    -3.437000000
H     1.821000000     4.709000000    -3.562000000
H     0.209000000     4.644000000    -4.076000000
C     1.186000000     2.707000000    -3.852000000
C     2.435000000     2.170000000    -3.577000000
H     3.256000000     2.806000000    -3.257000000
C     0.158000000     1.893000000    -4.315000000
C     0.358000000     0.527000000    -4.585000000
H    -0.384000000    -0.147000000    -5.006000000
C     1.630000000     0.081000000    -4.401000000
O     1.893000000    -1.266000000    -4.653000000
C     1.889000000    -2.059000000    -3.453000000
C     1.087000000    -3.369000000    -3.630000000
C     0.055000000    -3.415000000    -4.555000000
H    -0.298000000    -2.509000000    -5.040000000
C     1.332000000    -4.413000000    -2.746000000
H     2.183000000    -4.407000000    -2.069000000
O     3.295000000    -2.436000000    -3.065000000
H     1.387000000    -1.457000000    -2.682000000
C     2.712000000     0.845000000    -3.938000000
C     4.108000000     0.232000000    -3.726000000
H     4.822000000     1.029000000    -3.943000000
H     4.273000000    -0.561000000    -4.458000000
C     4.285000000    -0.376000000    -2.354000000
C     3.979000000    -1.675000000    -2.075000000
C     4.213000000    -2.239000000    -0.782000000
H     3.876000000    -3.243000000    -0.535000000
C     4.606000000    -1.411000000     0.261000000
O     4.202000000    -1.927000000     1.535000000
C     3.094000000    -1.280000000     2.328000000
H     2.370000000    -0.813000000     1.643000000
C     2.362000000    -2.408000000     3.082000000
C     1.970000000    -2.141000000     4.384000000
H     2.236000000    -1.238000000     4.929000000
C     1.856000000    -3.540000000     2.391000000
H     2.054000000    -3.724000000     1.338000000
C     0.953000000    -4.414000000     3.052000000
O     0.342000000    -5.473000000     2.439000000
C     0.580000000    -4.087000000     4.337000000
H    -0.034000000    -4.796000000     4.886000000
C     1.037000000    -2.984000000     5.070000000
O     0.409000000    -2.664000000     6.236000000
C     0.337000000    -1.410000000     6.805000000
C    -0.780000000    -0.630000000     6.392000000
H    -1.588000000    -1.041000000     5.793000000
C     1.306000000    -0.927000000     7.694000000
H     2.167000000    -1.546000000     7.937000000
C     1.130000000     0.323000000     8.278000000
H     1.846000000     0.745000000     8.978000000
C    -0.059000000     1.062000000     7.980000000
H    -0.305000000     1.945000000     8.563000000
C    -0.940000000     0.599000000     6.958000000
O    -2.134000000     1.185000000     6.733000000
C    -2.347000000     1.975000000     5.620000000
C    -3.649000000     2.204000000     5.118000000
H    -4.545000000     1.967000000     5.685000000
C    -3.713000000     2.998000000     3.984000000
O    -4.960000000     3.322000000     3.541000000
C    -5.222000000     3.694000000     2.264000000
C    -5.695000000     2.715000000     1.330000000
H    -5.919000000     1.671000000     1.537000000
C    -5.136000000     4.991000000     1.904000000
H    -4.954000000     5.787000000     2.622000000
C    -5.506000000     5.300000000     0.533000000
H    -5.395000000     6.350000000     0.275000000
C    -5.909000000     4.357000000    -0.423000000
H    -6.190000000     4.640000000    -1.434000000
C    -6.025000000     3.025000000    -0.020000000
O    -6.256000000     1.976000000    -0.928000000
C    -5.265000000     1.520000000    -1.783000000
C    -5.480000000     0.296000000    -2.424000000
H    -6.288000000    -0.372000000    -2.138000000
C    -4.507000000    -0.205000000    -3.305000000
O    -4.752000000    -1.422000000    -3.840000000
C    -4.059000000    -1.898000000    -4.950000000
C    -3.240000000    -2.979000000    -4.745000000
H    -3.211000000    -3.352000000    -3.724000000
C    -4.032000000    -1.265000000    -6.226000000
H    -4.825000000    -0.568000000    -6.484000000
C    -3.254000000    -1.800000000    -7.279000000
H    -3.224000000    -1.226000000    -8.202000000
C    -2.570000000    -2.985000000    -7.078000000
H    -2.039000000    -3.454000000    -7.903000000
C    -2.492000000    -3.550000000    -5.796000000
O    -1.699000000    -4.654000000    -5.517000000
C    -0.666000000    -4.609000000    -4.698000000
C    -0.496000000    -5.673000000    -3.762000000
H    -1.195000000    -6.503000000    -3.834000000
C     0.471000000    -5.517000000    -2.771000000
O     0.841000000    -6.651000000    -2.157000000
C     1.339000000    -6.696000000    -0.862000000
C     2.359000000    -7.602000000    -0.550000000
H     2.846000000    -8.157000000    -1.348000000
C     2.811000000    -7.744000000     0.785000000
H     3.619000000    -8.423000000     1.044000000
C     2.073000000    -7.079000000     1.767000000
H     2.335000000    -7.291000000     2.801000000
C     1.003000000    -6.209000000     1.482000000
C     0.639000000    -5.995000000     0.107000000
H    -0.260000000    -5.416000000    -0.091000000
O    -3.239000000    -3.140000000     3.975000000
H    -3.025000000    -3.434000000     3.090000000
H    -4.052000000    -3.598000000     4.190000000
O    -7.898000000    -6.281000000    -0.482000000
H    -8.829000000    -6.499000000    -0.435000000
H    -7.467000000    -7.112000000    -0.685000000
O    -6.332000000    -5.600000000    -2.794000000
H    -6.865000000    -6.011000000    -2.114000000
H    -6.027000000    -4.783000000    -2.399000000
O    -2.974000000    -9.163000000     1.678000000
H    -2.675000000    -8.258000000     1.769000000
H    -2.202000000    -9.692000000     1.881000000
O    -4.346000000    -5.759000000     4.259000000
H    -3.853000000    -5.973000000     5.051000000
H    -3.760000000    -5.997000000     3.541000000
O    -1.280000000    -6.789000000     4.367000000
H    -1.893000000    -7.023000000     5.065000000
H    -0.444000000    -6.665000000     4.815000000
O    -3.160000000    -8.096000000    -2.870000000
H    -2.919000000    -7.383000000    -2.279000000
H    -3.159000000    -8.876000000    -2.316000000
O    -2.562000000    -6.310000000     1.965000000
H    -1.957000000    -6.565000000     2.662000000
H    -2.374000000    -5.385000000     1.811000000
O    -7.076000000    -5.875000000     3.282000000
H    -6.300000000    -6.000000000     3.828000000
H    -6.829000000    -5.184000000     2.668000000
O    -2.264000000    -3.621000000     6.462000000
H    -2.787000000    -3.496000000     5.670000000
H    -1.357000000    -3.563000000     6.163000000
O    -5.391000000    -2.890000000    -1.495000000
H    -5.063000000    -2.577000000    -2.338000000
H    -4.642000000    -3.333000000    -1.096000000
O    -5.875000000    -7.939000000    -1.040000000
H    -6.494000000    -8.432000000    -1.578000000
H    -5.138000000    -7.762000000    -1.625000000
O    -2.944000000    -6.616000000    -0.703000000
H    -2.702000000    -6.659000000     0.222000000
H    -2.962000000    -5.681000000    -0.903000000
O    -8.864000000    -1.092000000     2.169000000
H    -7.937000000    -1.305000000     2.268000000
H    -9.258000000    -1.345000000     3.004000000
O    -5.788000000    -4.430000000     1.323000000
H    -4.872000000    -4.427000000     1.043000000
H    -6.172000000    -5.185000000     0.877000000
O    -8.159000000    -3.544000000    -1.389000000
H    -7.243000000    -3.345000000    -1.195000000
H    -8.273000000    -4.450000000    -1.102000000
O    -6.371000000    -5.093000000    -5.391000000
H    -5.861000000    -5.870000000    -5.621000000
H    -6.372000000    -5.082000000    -4.434000000
O    -4.138000000    -0.724000000     0.450000000
H    -4.640000000    -1.362000000    -0.058000000
H    -3.287000000    -1.140000000     0.583000000
O    -5.852000000    -1.905000000     2.421000000
H    -5.729000000    -1.192000000     1.794000000
H    -5.763000000    -2.702000000     1.898000000
