201
-1253.25125
C    -2.640000000     1.642000000     4.724000000
H    -2.700000000     2.672000000     4.384000000
C    -1.481000000     0.869000000     4.661000000
C    -1.534000000    -0.492000000     5.043000000
H    -0.617000000    -1.075000000     5.030000000
C    -0.236000000     1.445000000     4.051000000
O    -0.237000000     2.889000000     4.113000000
H    -0.190000000     1.092000000     3.010000000
O     0.970000000     0.927000000     4.667000000
C     2.051000000     0.576000000     3.968000000
C     2.318000000    -0.748000000     3.585000000
H     1.622000000    -1.506000000     3.934000000
C     3.364000000    -1.079000000     2.788000000
O     3.480000000    -2.362000000     2.367000000
C     4.222000000    -0.103000000     2.288000000
C     5.378000000    -0.404000000     1.355000000
H     6.218000000     0.280000000     1.490000000
C     4.927000000    -0.401000000    -0.046000000
C     4.900000000     0.790000000    -0.789000000
H     5.211000000     1.696000000    -0.275000000
H     5.811000000    -1.367000000     1.633000000
C     3.935000000     1.255000000     2.592000000
H     4.597000000     2.015000000     2.184000000
C     2.917000000     1.609000000     3.410000000
C     2.636000000     3.084000000     3.554000000
H     3.578000000     3.617000000     3.407000000
H     2.401000000     3.338000000     4.590000000
C     1.535000000     3.558000000     2.599000000
C     1.938000000     4.213000000     1.470000000
H     2.999000000     4.157000000     1.242000000
C     0.124000000     3.546000000     2.984000000
C    -0.822000000     4.066000000     2.154000000
H    -1.860000000     3.765000000     2.275000000
C    -0.425000000     4.709000000     1.004000000
O    -1.358000000     4.938000000    -0.007000000
C    -1.489000000     3.926000000    -1.118000000
C    -2.877000000     3.266000000    -1.232000000
C    -3.030000000     2.329000000    -2.216000000
H    -2.195000000     2.168000000    -2.892000000
C    -3.891000000     3.468000000    -0.291000000
H    -3.621000000     4.176000000     0.488000000
O    -0.881000000     4.382000000    -2.369000000
H    -0.878000000     3.046000000    -0.870000000
C     0.942000000     4.792000000     0.643000000
C     1.314000000     5.526000000    -0.692000000
H     2.233000000     6.108000000    -0.597000000
H     0.513000000     6.243000000    -0.881000000
C     1.501000000     4.575000000    -1.834000000
C     2.751000000     3.880000000    -1.832000000
H     3.584000000     4.165000000    -1.195000000
C     0.412000000     4.046000000    -2.541000000
C     0.566000000     2.918000000    -3.292000000
H    -0.339000000     2.551000000    -3.771000000
C     1.828000000     2.317000000    -3.432000000
O     1.847000000     1.224000000    -4.324000000
C     1.954000000    -0.153000000    -3.828000000
C     1.080000000    -1.097000000    -4.693000000
C    -0.120000000    -0.621000000    -5.324000000
H    -0.482000000     0.404000000    -5.301000000
C     1.472000000    -2.431000000    -4.854000000
H     2.415000000    -2.707000000    -4.389000000
O     3.372000000    -0.431000000    -3.857000000
H     1.717000000    -0.256000000    -2.759000000
C     2.926000000     2.852000000    -2.722000000
C     4.253000000     2.106000000    -2.838000000
H     5.089000000     2.749000000    -2.557000000
H     4.320000000     1.924000000    -3.912000000
C     4.306000000     0.808000000    -2.031000000
C     3.974000000    -0.393000000    -2.617000000
C     4.100000000    -1.604000000    -1.952000000
H     3.736000000    -2.526000000    -2.398000000
C     4.513000000    -1.643000000    -0.573000000
O     4.285000000    -2.766000000     0.177000000
C     3.079000000    -2.710000000     1.020000000
H     2.420000000    -1.952000000     0.573000000
C     2.283000000    -3.992000000     1.029000000
C     1.432000000    -4.204000000     2.141000000
H     1.418000000    -3.563000000     3.018000000
C     2.197000000    -4.795000000    -0.097000000
H     2.787000000    -4.448000000    -0.942000000
C     1.333000000    -5.849000000    -0.082000000
O     1.117000000    -6.693000000    -1.156000000
C     0.499000000    -6.083000000     0.975000000
H    -0.233000000    -6.877000000     1.100000000
C     0.584000000    -5.298000000     2.083000000
O    -0.382000000    -5.541000000     3.020000000
C    -0.597000000    -4.835000000     4.182000000
C    -1.659000000    -4.054000000     4.326000000
H    -2.402000000    -4.039000000     3.533000000
C     0.394000000    -4.995000000     5.152000000
H     1.163000000    -5.763000000     5.144000000
C     0.295000000    -4.249000000     6.311000000
H     1.047000000    -4.245000000     7.096000000
C    -0.803000000    -3.374000000     6.490000000
H    -0.793000000    -2.739000000     7.373000000
C    -1.771000000    -3.248000000     5.506000000
O    -2.834000000    -2.352000000     5.811000000
C    -2.732000000    -1.014000000     5.549000000
C    -3.910000000    -0.237000000     5.511000000
H    -4.808000000    -0.727000000     5.878000000
C    -3.853000000     1.080000000     5.086000000
O    -4.950000000     1.928000000     5.181000000
C    -5.417000000     2.808000000     4.216000000
C    -5.325000000     2.591000000     2.778000000
H    -4.763000000     1.702000000     2.505000000
C    -6.053000000     3.943000000     4.695000000
H    -6.063000000     4.134000000     5.764000000
C    -6.719000000     4.740000000     3.784000000
H    -7.199000000     5.650000000     4.134000000
C    -6.822000000     4.455000000     2.375000000
H    -7.317000000     5.162000000     1.714000000
C    -6.069000000     3.377000000     1.862000000
O    -6.167000000     3.062000000     0.481000000
C    -5.173000000     2.865000000    -0.421000000
C    -5.332000000     1.947000000    -1.449000000
H    -6.284000000     1.424000000    -1.484000000
C    -4.283000000     1.649000000    -2.314000000
O    -4.520000000     0.743000000    -3.270000000
C    -4.066000000     0.864000000    -4.515000000
C    -3.345000000    -0.180000000    -5.121000000
H    -3.244000000    -1.130000000    -4.602000000
C    -4.197000000     2.024000000    -5.240000000
H    -4.668000000     2.848000000    -4.711000000
C    -3.550000000     2.140000000    -6.510000000
H    -3.580000000     3.060000000    -7.089000000
C    -2.760000000     1.120000000    -7.014000000
H    -2.154000000     1.286000000    -7.901000000
C    -2.748000000    -0.137000000    -6.346000000
O    -1.973000000    -1.172000000    -6.785000000
C    -0.857000000    -1.531000000    -6.010000000
C    -0.568000000    -2.889000000    -5.971000000
H    -1.132000000    -3.662000000    -6.487000000
C     0.607000000    -3.336000000    -5.392000000
O     0.929000000    -4.729000000    -5.442000000
C     1.703000000    -5.505000000    -4.575000000
C     3.039000000    -5.914000000    -4.834000000
H     3.447000000    -5.809000000    -5.836000000
C     3.674000000    -6.560000000    -3.787000000
H     4.715000000    -6.871000000    -3.810000000
C     3.038000000    -6.908000000    -2.534000000
H     3.535000000    -7.567000000    -1.826000000
C     1.752000000    -6.506000000    -2.367000000
C     1.147000000    -5.675000000    -3.286000000
H     0.208000000    -5.206000000    -3.004000000
O    -2.805000000    -6.955000000     1.404000000
H    -2.807000000    -6.079000000     1.017000000
H    -2.381000000    -7.506000000     0.746000000
O    -0.359000000    -8.085000000    -4.402000000
H    -0.627000000    -7.372000000    -3.823000000
H    -1.118000000    -8.233000000    -4.967000000
O    -5.705000000    -8.890000000    -0.438000000
H    -5.159000000    -8.330000000    -0.991000000
H    -5.498000000    -8.617000000     0.456000000
O    -4.157000000    -7.645000000    -3.582000000
H    -3.215000000    -7.666000000    -3.414000000
H    -4.538000000    -7.312000000    -2.770000000
O    -4.280000000    -0.764000000     0.208000000
H    -3.360000000    -0.500000000     0.224000000
H    -4.591000000    -0.496000000    -0.657000000
O    -7.024000000    -0.269000000     0.788000000
H    -6.124000000    -0.526000000     0.589000000
H    -7.391000000    -0.008000000    -0.057000000
O    -6.492000000    -5.838000000     0.780000000
H    -7.180000000    -6.036000000     1.415000000
H    -6.033000000    -5.085000000     1.151000000
O    -0.272000000    -9.536000000    -2.284000000
H    -0.125000000    -8.999000000    -3.063000000
H     0.441000000    -9.298000000    -1.691000000
O    -1.867000000    -6.710000000    -2.194000000
H    -1.967000000    -7.276000000    -1.429000000
H    -2.147000000    -5.846000000    -1.892000000
O    -7.085000000    -3.694000000    -1.556000000
H    -7.307000000    -4.074000000    -2.406000000
H    -6.910000000    -4.449000000    -0.994000000
O    -4.139000000    -6.892000000     3.831000000
H    -3.611000000    -6.909000000     3.034000000
H    -4.437000000    -5.985000000     3.902000000
O    -6.597000000    -1.946000000    -4.581000000
H    -6.409000000    -1.613000000    -3.704000000
H    -5.824000000    -2.461000000    -4.813000000
O    -3.807000000    -6.957000000    -6.167000000
H    -3.981000000    -7.171000000    -5.250000000
H    -4.645000000    -6.635000000    -6.500000000
O    -1.872000000    -8.736000000    -0.313000000
H    -2.099000000    -9.342000000     0.392000000
H    -1.274000000    -9.232000000    -0.873000000
O    -4.570000000    -3.744000000    -3.884000000
H    -3.978000000    -3.704000000    -3.133000000
H    -4.350000000    -4.568000000    -4.318000000
O    -5.018000000    -3.505000000     1.291000000
H    -4.782000000    -2.596000000     1.108000000
H    -4.246000000    -4.010000000     1.036000000
O    -7.507000000    -0.737000000    -1.797000000
H    -8.297000000    -0.648000000    -2.331000000
H    -7.330000000    -1.678000000    -1.786000000
O    -7.820000000    -5.248000000    -3.636000000
H    -7.159000000    -4.799000000    -4.163000000
H    -7.674000000    -6.178000000    -3.811000000
O    -4.661000000    -6.359000000    -1.128000000
H    -4.106000000    -5.583000000    -1.200000000
H    -5.212000000    -6.189000000    -0.364000000
