201
-1249.18673
C    -2.645000000     0.745000000     4.630000000
H    -2.839000000     1.757000000     4.285000000
C    -1.308000000     0.353000000     4.610000000
C    -1.035000000    -1.005000000     4.892000000
H    -0.033000000    -1.428000000     4.907000000
C    -0.176000000     1.262000000     4.175000000
O    -0.640000000     2.680000000     4.287000000
H     0.052000000     0.939000000     3.148000000
O     1.104000000     1.113000000     4.903000000
C     2.275000000     1.079000000     4.095000000
C     2.703000000    -0.180000000     3.673000000
H     2.273000000    -1.131000000     3.975000000
C     3.636000000    -0.288000000     2.644000000
O     3.885000000    -1.604000000     2.252000000
C     4.162000000     0.900000000     2.043000000
C     5.284000000     0.803000000     1.090000000
H     5.814000000     1.754000000     1.006000000
C     4.769000000     0.494000000    -0.346000000
C     4.664000000     1.663000000    -1.150000000
H     4.762000000     2.641000000    -0.685000000
H     5.987000000     0.055000000     1.463000000
C     3.680000000     2.137000000     2.401000000
H     3.980000000     3.004000000     1.818000000
C     2.758000000     2.239000000     3.460000000
C     2.118000000     3.647000000     3.775000000
H     2.909000000     4.380000000     3.605000000
H     1.886000000     3.763000000     4.836000000
C     0.899000000     3.983000000     2.937000000
C     1.131000000     4.654000000     1.734000000
H     2.106000000     4.942000000     1.348000000
C    -0.420000000     3.461000000     3.203000000
C    -1.444000000     3.594000000     2.253000000
H    -2.411000000     3.193000000     2.547000000
C    -1.212000000     4.288000000     1.058000000
O    -2.149000000     4.350000000     0.097000000
C    -2.085000000     3.421000000    -0.948000000
C    -3.466000000     2.778000000    -1.117000000
C    -3.787000000     2.223000000    -2.336000000
H    -3.126000000     2.202000000    -3.199000000
C    -4.370000000     2.697000000    -0.061000000
H    -4.155000000     3.191000000     0.883000000
O    -1.671000000     4.128000000    -2.174000000
H    -1.411000000     2.596000000    -0.672000000
C     0.075000000     4.814000000     0.799000000
C     0.382000000     5.434000000    -0.570000000
H     1.123000000     6.221000000    -0.414000000
H    -0.438000000     6.118000000    -0.800000000
C     0.714000000     4.452000000    -1.716000000
C     2.047000000     4.045000000    -1.894000000
H     2.750000000     4.516000000    -1.212000000
C    -0.330000000     3.955000000    -2.540000000
C    -0.035000000     2.998000000    -3.513000000
H    -0.805000000     2.526000000    -4.117000000
C     1.337000000     2.691000000    -3.799000000
O     1.534000000     1.664000000    -4.675000000
C     1.708000000     0.358000000    -4.117000000
C     0.975000000    -0.772000000    -4.871000000
C    -0.265000000    -0.571000000    -5.480000000
H    -0.664000000     0.439000000    -5.522000000
C     1.599000000    -2.010000000    -4.952000000
H     2.634000000    -2.177000000    -4.665000000
O     3.157000000     0.096000000    -4.090000000
H     1.352000000     0.408000000    -3.077000000
C     2.365000000     3.213000000    -3.005000000
C     3.789000000     2.795000000    -3.256000000
H     4.430000000     3.602000000    -2.896000000
H     3.894000000     2.629000000    -4.330000000
C     4.116000000     1.541000000    -2.433000000
C     3.856000000     0.250000000    -2.912000000
C     3.889000000    -0.881000000    -2.108000000
H     3.705000000    -1.884000000    -2.485000000
C     4.404000000    -0.781000000    -0.831000000
O     4.469000000    -1.926000000    -0.046000000
C     3.451000000    -2.133000000     0.935000000
H     2.586000000    -1.541000000     0.599000000
C     3.093000000    -3.575000000     1.061000000
C     2.818000000    -4.139000000     2.277000000
H     3.203000000    -3.717000000     3.202000000
C     2.703000000    -4.250000000    -0.082000000
H     2.814000000    -3.720000000    -1.025000000
C     2.030000000    -5.462000000     0.044000000
O     1.553000000    -6.185000000    -1.117000000
C     1.617000000    -5.926000000     1.273000000
H     0.991000000    -6.806000000     1.398000000
C     2.068000000    -5.314000000     2.398000000
O     1.683000000    -5.763000000     3.596000000
C     1.237000000    -4.880000000     4.606000000
C    -0.054000000    -4.425000000     4.557000000
H    -0.633000000    -4.621000000     3.658000000
C     1.936000000    -4.758000000     5.798000000
H     2.954000000    -5.124000000     5.903000000
C     1.426000000    -3.976000000     6.802000000
H     2.049000000    -3.650000000     7.631000000
C     0.106000000    -3.452000000     6.709000000
H    -0.209000000    -2.676000000     7.402000000
C    -0.657000000    -3.692000000     5.556000000
O    -1.959000000    -3.140000000     5.459000000
C    -2.068000000    -1.834000000     5.225000000
C    -3.361000000    -1.387000000     5.330000000
H    -4.207000000    -2.060000000     5.435000000
C    -3.645000000    -0.093000000     4.986000000
O    -4.973000000     0.376000000     4.912000000
C    -5.466000000     1.417000000     4.237000000
C    -5.769000000     1.306000000     2.875000000
H    -5.494000000     0.404000000     2.335000000
C    -5.879000000     2.580000000     4.880000000
H    -5.785000000     2.667000000     5.960000000
C    -6.436000000     3.578000000     4.103000000
H    -6.766000000     4.518000000     4.537000000
C    -6.649000000     3.463000000     2.726000000
H    -7.052000000     4.304000000     2.168000000
C    -6.236000000     2.327000000     2.074000000
O    -6.561000000     2.227000000     0.775000000
C    -5.663000000     2.170000000    -0.262000000
C    -5.953000000     1.522000000    -1.474000000
H    -6.953000000     1.097000000    -1.493000000
C    -5.022000000     1.589000000    -2.526000000
O    -5.416000000     0.963000000    -3.710000000
C    -4.610000000     0.826000000    -4.820000000
C    -3.828000000    -0.302000000    -4.944000000
H    -3.775000000    -1.180000000    -4.305000000
C    -4.524000000     1.850000000    -5.760000000
H    -5.220000000     2.664000000    -5.576000000
C    -3.678000000     1.748000000    -6.814000000
H    -3.670000000     2.518000000    -7.581000000
C    -2.934000000     0.612000000    -6.977000000
H    -2.298000000     0.587000000    -7.858000000
C    -3.023000000    -0.411000000    -6.071000000
O    -2.265000000    -1.600000000    -6.289000000
C    -0.975000000    -1.722000000    -5.902000000
C    -0.468000000    -2.998000000    -5.741000000
H    -1.140000000    -3.799000000    -6.040000000
C     0.890000000    -3.131000000    -5.384000000
O     1.523000000    -4.330000000    -5.402000000
C     2.151000000    -4.986000000    -4.436000000
C     3.219000000    -5.842000000    -4.832000000
H     3.572000000    -5.724000000    -5.853000000
C     3.757000000    -6.773000000    -3.935000000
H     4.504000000    -7.508000000    -4.224000000
C     3.101000000    -6.883000000    -2.693000000
H     3.288000000    -7.599000000    -1.897000000
C     2.120000000    -5.984000000    -2.298000000
C     1.633000000    -5.066000000    -3.137000000
H     0.914000000    -4.353000000    -2.740000000
O    -1.426000000    -7.509000000     0.862000000
H    -1.810000000    -6.742000000     0.438000000
H    -1.436000000    -8.187000000     0.186000000
O    -0.609000000    -6.847000000    -6.923000000
H     0.123000000    -6.316000000    -6.611000000
H    -1.337000000    -6.613000000    -6.346000000
O    -6.551000000    -2.848000000    -4.114000000
H    -6.851000000    -2.004000000    -4.451000000
H    -6.060000000    -2.629000000    -3.322000000
O    -2.709000000     0.229000000     1.532000000
H    -3.353000000    -0.364000000     1.147000000
H    -1.873000000    -0.048000000     1.157000000
O     1.542000000    -9.057000000    -0.171000000
H     2.059000000    -9.068000000     0.634000000
H     1.352000000    -8.131000000    -0.321000000
O    -5.165000000    -9.782000000    -0.030000000
H    -4.951000000   -10.295000000    -0.810000000
H    -4.633000000    -8.991000000    -0.111000000
O    -6.300000000    -3.277000000     1.946000000
H    -7.144000000    -3.034000000     2.327000000
H    -5.975000000    -3.978000000     2.511000000
O    -1.099000000    -8.820000000     3.085000000
H    -1.089000000    -9.614000000     2.550000000
H    -0.956000000    -8.109000000     2.461000000
O    -4.104000000    -2.107000000     0.962000000
H    -3.390000000    -2.501000000     1.464000000
H    -4.899000000    -2.443000000     1.374000000
O    -7.422000000    -6.327000000    -0.645000000
H    -7.792000000    -6.053000000     0.194000000
H    -6.691000000    -5.726000000    -0.791000000
O    -2.855000000    -8.460000000    -4.246000000
H    -1.919000000    -8.619000000    -4.128000000
H    -2.940000000    -7.506000000    -4.234000000
O    -7.184000000    -2.331000000    -0.813000000
H    -6.878000000    -2.526000000     0.072000000
H    -6.389000000    -2.318000000    -1.345000000
O    -2.853000000    -6.698000000     3.925000000
H    -2.754000000    -5.994000000     3.285000000
H    -2.402000000    -7.445000000     3.531000000
O    -4.166000000    -3.946000000    -5.679000000
H    -4.976000000    -4.072000000    -5.184000000
H    -3.899000000    -3.050000000    -5.476000000
O    -2.572000000    -5.870000000    -4.685000000
H    -2.324000000    -5.369000000    -3.907000000
H    -3.180000000    -5.298000000    -5.154000000
O    -2.994000000    -4.839000000     1.910000000
H    -2.599000000    -4.903000000     1.041000000
H    -3.860000000    -5.234000000     1.810000000
O    -4.643000000    -2.544000000    -1.868000000
H    -4.331000000    -2.123000000    -1.067000000
H    -3.931000000    -3.130000000    -2.124000000
O    -5.523000000    -5.299000000    -2.341000000
H    -5.868000000    -5.444000000    -3.222000000
H    -4.577000000    -5.227000000    -2.463000000
O    -3.983000000    -7.454000000    -1.024000000
H    -3.371000000    -6.739000000    -0.846000000
H    -4.601000000    -7.088000000    -1.657000000
