201
-1234.45171
C    -3.092000000    -2.847000000    -3.877000000
H    -3.360000000    -2.085000000    -4.604000000
C    -3.200000000    -2.638000000    -2.482000000
C    -2.832000000    -3.603000000    -1.527000000
H    -3.068000000    -3.504000000    -0.471000000
C    -3.816000000    -1.323000000    -2.028000000
O    -4.207000000    -0.387000000    -3.025000000
H    -2.947000000    -0.813000000    -1.586000000
O    -4.868000000    -1.375000000    -1.030000000
C    -4.751000000    -0.584000000     0.104000000
C    -4.234000000    -1.114000000     1.247000000
H    -4.035000000    -2.178000000     1.353000000
C    -3.833000000    -0.264000000     2.281000000
O    -3.141000000    -0.908000000     3.329000000
C    -4.186000000     1.080000000     2.348000000
C    -3.861000000     2.006000000     3.525000000
H    -4.537000000     2.856000000     3.641000000
C    -2.405000000     2.478000000     3.474000000
C    -2.066000000     3.614000000     2.696000000
H    -2.817000000     4.209000000     2.182000000
H    -4.041000000     1.463000000     4.455000000
C    -4.630000000     1.673000000     1.166000000
H    -4.807000000     2.746000000     1.140000000
C    -4.839000000     0.831000000     0.024000000
C    -5.199000000     1.610000000    -1.279000000
H    -5.530000000     2.601000000    -0.960000000
H    -5.979000000     1.104000000    -1.852000000
C    -4.038000000     1.845000000    -2.214000000
C    -3.206000000     2.985000000    -2.233000000
H    -3.526000000     3.839000000    -1.642000000
C    -3.620000000     0.857000000    -3.101000000
C    -2.520000000     0.991000000    -3.873000000
H    -2.132000000     0.104000000    -4.368000000
C    -1.672000000     2.120000000    -3.878000000
O    -0.443000000     2.077000000    -4.436000000
C     0.706000000     1.908000000    -3.544000000
C     1.580000000     0.837000000    -4.137000000
C     2.818000000     0.621000000    -3.555000000
H     3.179000000     1.219000000    -2.721000000
C     1.148000000    -0.025000000    -5.126000000
H     0.148000000     0.096000000    -5.533000000
O     1.374000000     3.255000000    -3.296000000
H     0.417000000     1.531000000    -2.552000000
C    -2.102000000     3.182000000    -3.083000000
C    -1.287000000     4.457000000    -3.001000000
H    -2.014000000     5.260000000    -2.862000000
H    -0.827000000     4.643000000    -3.974000000
C    -0.269000000     4.369000000    -1.875000000
C    -0.710000000     4.670000000    -0.587000000
H    -1.732000000     4.920000000    -0.314000000
C     1.020000000     3.889000000    -2.080000000
C     1.981000000     3.899000000    -1.050000000
H     2.999000000     3.564000000    -1.232000000
C     1.583000000     4.318000000     0.198000000
O     2.411000000     4.154000000     1.254000000
C     2.239000000     3.042000000     2.188000000
C     3.582000000     2.399000000     2.452000000
C     4.379000000     1.881000000     1.450000000
H     4.216000000     2.103000000     0.399000000
C     3.955000000     2.018000000     3.712000000
H     3.352000000     2.277000000     4.578000000
O     1.554000000     3.536000000     3.362000000
H     1.632000000     2.276000000     1.685000000
C     0.268000000     4.729000000     0.433000000
C    -0.214000000     5.157000000     1.834000000
H    -0.959000000     5.951000000     1.749000000
H     0.550000000     5.682000000     2.410000000
C    -0.700000000     3.945000000     2.636000000
C     0.237000000     3.236000000     3.451000000
C    -0.162000000     2.153000000     4.232000000
H     0.537000000     1.523000000     4.777000000
C    -1.497000000     1.823000000     4.238000000
O    -1.794000000     0.537000000     4.506000000
C    -1.735000000    -0.442000000     3.511000000
H    -1.344000000    -0.026000000     2.571000000
C    -0.914000000    -1.610000000     4.042000000
C    -1.333000000    -2.911000000     3.593000000
H    -2.181000000    -3.043000000     2.926000000
C     0.199000000    -1.465000000     4.888000000
H     0.561000000    -0.456000000     5.071000000
C     0.845000000    -2.594000000     5.369000000
O     2.012000000    -2.505000000     6.045000000
C     0.294000000    -3.822000000     5.034000000
H     0.812000000    -4.672000000     5.470000000
C    -0.754000000    -4.020000000     4.108000000
O    -1.160000000    -5.291000000     3.781000000
C    -1.894000000    -5.567000000     2.642000000
C    -1.480000000    -5.428000000     1.349000000
H    -0.481000000    -5.052000000     1.145000000
C    -3.162000000    -6.036000000     2.855000000
H    -3.454000000    -6.095000000     3.901000000
C    -4.059000000    -6.361000000     1.866000000
H    -5.088000000    -6.686000000     1.998000000
C    -3.639000000    -6.212000000     0.537000000
H    -4.234000000    -6.422000000    -0.348000000
C    -2.349000000    -5.753000000     0.314000000
O    -1.783000000    -5.673000000    -0.979000000
C    -2.120000000    -4.732000000    -1.962000000
C    -1.941000000    -5.015000000    -3.357000000
H    -1.578000000    -5.948000000    -3.781000000
C    -2.479000000    -4.069000000    -4.245000000
O    -2.376000000    -4.329000000    -5.615000000
C    -1.650000000    -3.448000000    -6.356000000
C    -0.429000000    -2.962000000    -5.941000000
H     0.013000000    -3.237000000    -4.987000000
C    -2.180000000    -2.926000000    -7.512000000
H    -3.131000000    -3.284000000    -7.899000000
C    -1.512000000    -2.046000000    -8.341000000
H    -1.912000000    -1.811000000    -9.323000000
C    -0.260000000    -1.665000000    -7.993000000
H     0.320000000    -0.999000000    -8.627000000
C     0.237000000    -2.140000000    -6.813000000
O     1.607000000    -1.891000000    -6.499000000
C     1.953000000    -1.110000000    -5.488000000
C     3.206000000    -1.315000000    -4.908000000
H     3.885000000    -2.096000000    -5.238000000
C     3.675000000    -0.411000000    -3.983000000
O     4.936000000    -0.641000000    -3.469000000
C     5.568000000     0.328000000    -2.791000000
C     5.569000000     0.281000000    -1.430000000
H     5.053000000    -0.581000000    -1.015000000
C     6.327000000     1.329000000    -3.455000000
H     6.343000000     1.333000000    -4.542000000
C     7.008000000     2.317000000    -2.690000000
H     7.636000000     3.066000000    -3.165000000
C     7.029000000     2.241000000    -1.327000000
H     7.575000000     2.932000000    -0.690000000
C     6.309000000     1.226000000    -0.656000000
O     6.443000000     0.968000000     0.685000000
C     5.598000000     1.279000000     1.721000000
C     5.921000000     0.952000000     3.029000000
H     6.871000000     0.455000000     3.205000000
C     5.094000000     1.284000000     4.018000000
O     5.341000000     0.814000000     5.279000000
C     4.280000000     0.409000000     6.091000000
C     3.934000000     1.006000000     7.301000000
H     4.427000000     1.912000000     7.644000000
C     2.967000000     0.453000000     8.095000000
H     2.465000000     1.000000000     8.889000000
C     2.278000000    -0.733000000     7.665000000
H     1.517000000    -1.110000000     8.343000000
C     2.636000000    -1.328000000     6.468000000
C     3.667000000    -0.759000000     5.702000000
H     3.970000000    -1.310000000     4.816000000
O     7.732000000    -6.996000000    -4.727000000
H     8.610000000    -6.632000000    -4.845000000
H     7.143000000    -6.304000000    -5.029000000
O     6.453000000    -4.461000000     3.758000000
H     6.181000000    -3.621000000     3.388000000
H     6.395000000    -5.075000000     3.025000000
O     8.967000000    -6.530000000     0.339000000
H     9.080000000    -6.954000000    -0.511000000
H     8.129000000    -6.072000000     0.269000000
O     5.996000000    -5.411000000    -0.434000000
H     5.632000000    -4.534000000    -0.555000000
H     5.770000000    -5.641000000     0.467000000
O     3.543000000    -5.546000000     5.571000000
H     3.086000000    -5.039000000     4.900000000
H     4.450000000    -5.584000000     5.267000000
O     6.055000000    -6.757000000     2.188000000
H     5.516000000    -6.819000000     2.977000000
H     6.564000000    -7.567000000     2.181000000
O     1.053000000    -8.302000000     2.110000000
H     1.717000000    -7.625000000     1.981000000
H     0.381000000    -8.106000000     1.456000000
O     0.361000000    -7.388000000    -1.147000000
H    -0.510000000    -7.278000000    -0.766000000
H     0.215000000    -7.918000000    -1.930000000
O     2.912000000    -4.260000000     2.883000000
H     2.778000000    -4.760000000     2.077000000
H     3.588000000    -3.620000000     2.658000000
O     9.866000000    -3.533000000    -2.837000000
H    10.678000000    -3.961000000    -2.565000000
H     9.299000000    -3.584000000    -2.067000000
O     4.161000000    -6.422000000    -2.285000000
H     3.660000000    -5.607000000    -2.301000000
H     4.881000000    -6.248000000    -1.678000000
O     3.409000000    -8.336000000    -3.945000000
H     3.692000000    -7.547000000    -3.482000000
H     2.546000000    -8.531000000    -3.580000000
O     1.456000000    -5.371000000    -6.315000000
H     2.249000000    -5.901000000    -6.403000000
H     1.466000000    -5.074000000    -5.405000000
O     2.887000000    -6.294000000     0.769000000
H     3.102000000    -5.673000000     0.072000000
H     2.400000000    -6.990000000     0.327000000
O     4.102000000    -6.340000000    -5.784000000
H     4.352000000    -5.685000000    -5.133000000
H     3.813000000    -7.093000000    -5.268000000
O     7.374000000    -3.457000000    -5.195000000
H     6.772000000    -3.616000000    -4.468000000
H     7.154000000    -4.129000000    -5.839000000
O     1.564000000    -5.582000000    -3.414000000
H     0.957000000    -5.888000000    -2.740000000
H     2.131000000    -4.958000000    -2.960000000
O     5.869000000    -2.588000000     1.753000000
H     5.163000000    -2.733000000     1.123000000
H     6.598000000    -2.264000000     1.225000000
O     5.352000000    -3.431000000    -3.316000000
H     5.450000000    -2.483000000    -3.407000000
H     4.577000000    -3.540000000    -2.764000000
