201
-1267.83328
C    -2.624000000     1.984000000     3.885000000
H    -2.960000000     2.677000000     3.118000000
C    -1.230000000     1.961000000     4.255000000
C    -0.775000000     1.128000000     5.319000000
H     0.293000000     1.016000000     5.490000000
C    -0.229000000     2.695000000     3.343000000
O    -0.763000000     3.934000000     2.960000000
H    -0.088000000     2.082000000     2.441000000
O     1.042000000     2.799000000     3.923000000
C     2.155000000     2.637000000     3.182000000
C     2.789000000     1.389000000     3.299000000
H     2.332000000     0.665000000     3.969000000
C     3.860000000     1.025000000     2.507000000
O     4.373000000    -0.257000000     2.679000000
C     4.297000000     1.889000000     1.472000000
C     5.453000000     1.496000000     0.525000000
H     5.999000000     2.344000000     0.105000000
C     4.736000000     0.718000000    -0.632000000
C     4.355000000     1.384000000    -1.792000000
H     4.441000000     2.466000000    -1.744000000
H     6.125000000     0.737000000     0.929000000
C     3.629000000     3.113000000     1.345000000
H     3.969000000     3.842000000     0.614000000
C     2.597000000     3.507000000     2.170000000
C     1.882000000     4.793000000     2.022000000
H     2.552000000     5.596000000     1.708000000
H     1.498000000     4.978000000     3.028000000
C     0.665000000     4.668000000     1.162000000
C     0.741000000     4.895000000    -0.223000000
H     1.642000000     5.245000000    -0.721000000
C    -0.609000000     4.324000000     1.676000000
C    -1.668000000     4.151000000     0.805000000
H    -2.612000000     3.827000000     1.236000000
C    -1.558000000     4.396000000    -0.551000000
O    -2.652000000     4.114000000    -1.382000000
C    -2.571000000     2.814000000    -2.028000000
C    -3.957000000     2.183000000    -2.083000000
C    -4.262000000     1.327000000    -3.165000000
H    -3.462000000     1.092000000    -3.863000000
C    -4.916000000     2.310000000    -1.047000000
H    -4.662000000     2.996000000    -0.243000000
O    -2.002000000     2.985000000    -3.364000000
H    -1.955000000     2.099000000    -1.464000000
C    -0.314000000     4.700000000    -1.094000000
C    -0.050000000     4.913000000    -2.570000000
H     0.722000000     5.683000000    -2.624000000
H    -0.894000000     5.384000000    -3.079000000
C     0.312000000     3.605000000    -3.245000000
C     1.658000000     3.301000000    -3.490000000
H     2.415000000     4.049000000    -3.270000000
C    -0.715000000     2.688000000    -3.600000000
C    -0.435000000     1.476000000    -4.277000000
H    -1.231000000     0.831000000    -4.639000000
C     0.941000000     1.117000000    -4.383000000
O     1.313000000    -0.105000000    -4.959000000
C     1.433000000    -1.057000000    -3.949000000
C     0.720000000    -2.414000000    -4.214000000
C    -0.591000000    -2.444000000    -4.720000000
H    -0.952000000    -1.479000000    -5.066000000
C     1.255000000    -3.619000000    -3.675000000
H     2.239000000    -3.482000000    -3.234000000
O     2.894000000    -1.309000000    -3.768000000
H     1.018000000    -0.710000000    -2.991000000
C     2.000000000     2.038000000    -4.012000000
C     3.474000000     1.574000000    -4.088000000
H     4.247000000     2.341000000    -4.173000000
H     3.590000000     1.008000000    -5.014000000
C     3.807000000     0.717000000    -2.857000000
C     3.533000000    -0.650000000    -2.739000000
C     3.824000000    -1.272000000    -1.573000000
H     3.611000000    -2.336000000    -1.621000000
C     4.501000000    -0.652000000    -0.543000000
O     4.817000000    -1.397000000     0.610000000
C     3.910000000    -1.297000000     1.734000000
H     2.916000000    -0.933000000     1.432000000
C     3.604000000    -2.699000000     2.332000000
C     3.131000000    -2.728000000     3.677000000
H     3.205000000    -1.902000000     4.380000000
C     3.503000000    -3.847000000     1.539000000
H     3.605000000    -3.761000000     0.460000000
C     3.129000000    -5.046000000     2.132000000
O     2.897000000    -6.187000000     1.471000000
C     2.697000000    -5.112000000     3.441000000
H     2.295000000    -6.082000000     3.720000000
C     2.617000000    -3.974000000     4.218000000
O     2.112000000    -4.070000000     5.539000000
C     1.705000000    -2.979000000     6.233000000
C     0.453000000    -2.366000000     5.915000000
H    -0.193000000    -2.774000000     5.142000000
C     2.509000000    -2.487000000     7.244000000
H     3.405000000    -3.057000000     7.474000000
C     2.006000000    -1.596000000     8.225000000
H     2.473000000    -1.378000000     9.182000000
C     0.748000000    -1.033000000     7.960000000
H     0.255000000    -0.295000000     8.588000000
C     0.037000000    -1.402000000     6.779000000
O    -1.245000000    -0.942000000     6.633000000
C    -1.617000000     0.259000000     5.961000000
C    -3.002000000     0.280000000     5.638000000
H    -3.735000000    -0.443000000     5.985000000
C    -3.455000000     1.119000000     4.628000000
O    -4.756000000     0.880000000     4.191000000
C    -5.332000000     1.779000000     3.338000000
C    -5.805000000     1.295000000     2.078000000
H    -5.609000000     0.247000000     1.865000000
C    -5.601000000     3.075000000     3.719000000
H    -5.219000000     3.521000000     4.634000000
C    -6.454000000     3.895000000     2.956000000
H    -6.737000000     4.812000000     3.467000000
C    -6.853000000     3.384000000     1.702000000
H    -7.439000000     4.039000000     1.063000000
C    -6.476000000     2.148000000     1.249000000
O    -6.986000000     1.753000000     0.057000000
C    -6.088000000     1.534000000    -1.042000000
C    -6.432000000     0.779000000    -2.203000000
H    -7.390000000     0.267000000    -2.227000000
C    -5.528000000     0.694000000    -3.236000000
O    -5.802000000    -0.108000000    -4.312000000
C    -4.847000000    -0.713000000    -5.236000000
C    -4.246000000    -1.881000000    -4.825000000
H    -4.514000000    -2.403000000    -3.910000000
C    -4.550000000    -0.183000000    -6.469000000
H    -4.979000000     0.767000000    -6.778000000
C    -3.603000000    -0.820000000    -7.262000000
H    -3.315000000    -0.410000000    -8.227000000
C    -2.973000000    -1.996000000    -6.838000000
H    -2.273000000    -2.576000000    -7.433000000
C    -3.305000000    -2.566000000    -5.620000000
O    -2.619000000    -3.723000000    -5.143000000
C    -1.356000000    -3.601000000    -4.647000000
C    -0.757000000    -4.762000000    -4.121000000
H    -1.329000000    -5.681000000    -4.018000000
C     0.515000000    -4.735000000    -3.523000000
O     0.897000000    -5.776000000    -2.738000000
C     2.062000000    -5.898000000    -2.030000000
C     3.147000000    -6.471000000    -2.680000000
H     3.187000000    -6.395000000    -3.763000000
C     4.236000000    -6.868000000    -1.972000000
H     5.071000000    -7.349000000    -2.475000000
C     4.157000000    -6.802000000    -0.545000000
H     4.921000000    -7.280000000     0.063000000
C     3.005000000    -6.332000000     0.085000000
C     1.963000000    -5.873000000    -0.665000000
H     1.058000000    -5.464000000    -0.224000000
O    -1.949000000    -7.384000000    -1.474000000
H    -2.056000000    -6.530000000    -1.054000000
H    -1.034000000    -7.400000000    -1.754000000
O    -3.567000000    -6.025000000     4.461000000
H    -3.645000000    -6.032000000     3.507000000
H    -4.343000000    -6.493000000     4.769000000
O    -5.061000000    -3.231000000     2.711000000
H    -4.459000000    -2.589000000     2.334000000
H    -4.586000000    -4.061000000     2.664000000
O    -2.096000000    -1.700000000     3.475000000
H    -1.809000000    -0.903000000     3.921000000
H    -2.445000000    -1.395000000     2.638000000
O    -3.382000000    -0.783000000     1.068000000
H    -2.849000000    -0.314000000     0.426000000
H    -4.060000000    -1.214000000     0.548000000
O    -0.693000000    -7.264000000     1.169000000
H    -0.465000000    -6.883000000     2.017000000
H    -1.281000000    -6.623000000     0.769000000
O    -4.143000000    -9.994000000    -2.008000000
H    -3.726000000    -9.205000000    -1.661000000
H    -4.042000000   -10.644000000    -1.313000000
O    -8.163000000    -6.223000000     0.184000000
H    -7.287000000    -6.095000000    -0.180000000
H    -8.010000000    -6.452000000     1.101000000
O    -7.562000000    -2.739000000     1.510000000
H    -8.000000000    -3.590000000     1.503000000
H    -6.633000000    -2.948000000     1.610000000
O     0.909000000    -9.126000000     0.436000000
H     0.210000000    -8.501000000     0.628000000
H     1.414000000    -9.178000000     1.248000000
O    -3.055000000    -3.536000000     5.342000000
H    -3.389000000    -4.305000000     4.880000000
H    -2.563000000    -3.054000000     4.678000000
O    -4.187000000    -7.046000000    -3.281000000
H    -4.289000000    -6.094000000    -3.275000000
H    -3.365000000    -7.202000000    -2.816000000
O    -4.855000000    -6.179000000    -0.679000000
H    -4.235000000    -5.455000000    -0.770000000
H    -4.660000000    -6.754000000    -1.419000000
O    -4.968000000    -4.581000000    -3.237000000
H    -5.718000000    -4.414000000    -2.666000000
H    -4.221000000    -4.210000000    -2.768000000
O    -5.155000000    -2.131000000    -0.634000000
H    -5.900000000    -2.324000000    -1.203000000
H    -4.480000000    -2.753000000    -0.904000000
O    -3.822000000    -5.694000000     1.721000000
H    -4.386000000    -6.156000000     1.099000000
H    -3.016000000    -5.526000000     1.233000000
O    -7.218000000    -3.124000000    -2.290000000
H    -7.716000000    -2.527000000    -2.848000000
H    -7.868000000    -3.745000000    -1.962000000
O    -0.940000000    -6.260000000     3.800000000
H    -1.866000000    -6.336000000     4.031000000
H    -0.601000000    -5.586000000     4.389000000
O    -2.341000000    -9.319000000     2.257000000
H    -1.829000000    -8.598000000     1.891000000
H    -1.686000000    -9.938000000     2.581000000
