201
-1226.43614
C    -1.510000000     2.335000000     4.412000000
H    -2.035000000     2.937000000     3.675000000
C    -0.135000000     2.295000000     4.395000000
C     0.432000000     1.458000000     5.365000000
H     1.502000000     1.411000000     5.550000000
C     0.668000000     2.787000000     3.213000000
O     0.012000000     4.014000000     2.697000000
H     0.570000000     2.054000000     2.399000000
O     2.175000000     2.932000000     3.477000000
C     3.040000000     2.622000000     2.460000000
C     3.684000000     1.400000000     2.567000000
H     3.666000000     0.903000000     3.534000000
C     4.506000000     0.956000000     1.495000000
O     5.020000000    -0.331000000     1.578000000
C     4.585000000     1.726000000     0.357000000
C     5.400000000     1.180000000    -0.856000000
H     5.880000000     2.034000000    -1.340000000
C     4.488000000     0.390000000    -1.836000000
C     3.995000000     0.969000000    -2.988000000
H     4.274000000     2.003000000    -3.174000000
H     6.239000000     0.574000000    -0.510000000
C     3.927000000     3.021000000     0.294000000
H     3.921000000     3.636000000    -0.602000000
C     3.207000000     3.493000000     1.393000000
C     2.392000000     4.764000000     1.279000000
H     2.896000000     5.515000000     0.666000000
H     2.248000000     5.248000000     2.246000000
C     1.048000000     4.549000000     0.585000000
C     0.964000000     4.688000000    -0.774000000
H     1.856000000     4.921000000    -1.350000000
C    -0.043000000     4.298000000     1.394000000
C    -1.262000000     4.255000000     0.758000000
H    -2.182000000     4.031000000     1.291000000
C    -1.386000000     4.363000000    -0.662000000
O    -2.558000000     4.016000000    -1.245000000
C    -2.723000000     2.753000000    -1.827000000
C    -4.127000000     2.266000000    -1.399000000
C    -4.674000000     1.231000000    -2.096000000
H    -4.305000000     1.033000000    -3.098000000
C    -4.775000000     2.625000000    -0.174000000
H    -4.396000000     3.485000000     0.374000000
O    -2.520000000     2.827000000    -3.231000000
H    -1.952000000     2.070000000    -1.440000000
C    -0.249000000     4.510000000    -1.473000000
C    -0.320000000     4.467000000    -2.972000000
H     0.520000000     5.100000000    -3.266000000
H    -1.296000000     4.882000000    -3.233000000
C    -0.111000000     3.118000000    -3.531000000
C     1.117000000     2.785000000    -4.074000000
H     1.980000000     3.432000000    -3.943000000
C    -1.277000000     2.355000000    -3.673000000
C    -1.142000000     1.215000000    -4.346000000
H    -2.046000000     0.645000000    -4.543000000
C     0.112000000     0.732000000    -4.761000000
O     0.183000000    -0.625000000    -5.089000000
C     0.587000000    -1.501000000    -4.019000000
C    -0.338000000    -2.730000000    -4.077000000
C    -1.679000000    -2.585000000    -4.320000000
H    -2.074000000    -1.747000000    -4.889000000
C     0.082000000    -3.809000000    -3.297000000
H     1.102000000    -3.923000000    -2.939000000
O     2.007000000    -1.824000000    -4.262000000
H     0.486000000    -1.043000000    -3.024000000
C     1.276000000     1.525000000    -4.604000000
C     2.690000000     1.062000000    -5.069000000
H     3.230000000     2.002000000    -5.203000000
H     2.678000000     0.587000000    -6.052000000
C     3.285000000     0.236000000    -3.885000000
C     2.861000000    -1.132000000    -3.536000000
C     3.411000000    -1.752000000    -2.433000000
H     3.197000000    -2.807000000    -2.287000000
C     4.253000000    -0.963000000    -1.595000000
O     4.773000000    -1.544000000    -0.486000000
C     4.222000000    -1.303000000     0.830000000
H     3.278000000    -0.747000000     0.738000000
C     3.893000000    -2.523000000     1.598000000
C     3.738000000    -2.549000000     2.997000000
H     4.145000000    -1.710000000     3.557000000
C     3.698000000    -3.680000000     0.875000000
H     3.801000000    -3.764000000    -0.204000000
C     3.337000000    -4.851000000     1.562000000
O     3.409000000    -6.033000000     0.870000000
C     2.965000000    -4.820000000     2.888000000
H     2.649000000    -5.711000000     3.426000000
C     3.221000000    -3.674000000     3.641000000
O     2.942000000    -3.649000000     4.946000000
C     2.852000000    -2.551000000     5.793000000
C     1.632000000    -1.892000000     5.964000000
H     0.764000000    -2.052000000     5.330000000
C     3.913000000    -2.335000000     6.586000000
H     4.884000000    -2.811000000     6.476000000
C     3.843000000    -1.321000000     7.590000000
H     4.710000000    -1.100000000     8.208000000
C     2.705000000    -0.496000000     7.674000000
H     2.776000000     0.324000000     8.384000000
C     1.562000000    -0.886000000     6.977000000
O     0.362000000    -0.261000000     7.172000000
C    -0.307000000     0.651000000     6.251000000
C    -1.706000000     0.709000000     6.211000000
H    -2.219000000     0.117000000     6.963000000
C    -2.310000000     1.531000000     5.220000000
O    -3.663000000     1.468000000     5.228000000
C    -4.533000000     2.305000000     4.560000000
C    -5.102000000     1.882000000     3.372000000
H    -4.884000000     0.876000000     3.024000000
C    -4.698000000     3.619000000     4.999000000
H    -4.190000000     3.850000000     5.932000000
C    -5.628000000     4.440000000     4.338000000
H    -5.833000000     5.441000000     4.709000000
C    -6.254000000     4.072000000     3.125000000
H    -6.874000000     4.812000000     2.627000000
C    -5.929000000     2.783000000     2.592000000
O    -6.576000000     2.314000000     1.523000000
C    -5.870000000     1.945000000     0.337000000
C    -6.445000000     0.921000000    -0.476000000
H    -7.243000000     0.324000000    -0.043000000
C    -5.890000000     0.564000000    -1.710000000
O    -6.586000000    -0.353000000    -2.513000000
C    -5.990000000    -0.893000000    -3.689000000
C    -5.051000000    -1.892000000    -3.547000000
H    -4.788000000    -2.253000000    -2.556000000
C    -6.477000000    -0.405000000    -4.872000000
H    -7.266000000     0.337000000    -4.964000000
C    -6.007000000    -1.037000000    -5.971000000
H    -6.408000000    -0.683000000    -6.917000000
C    -5.074000000    -2.091000000    -5.931000000
H    -4.650000000    -2.540000000    -6.825000000
C    -4.606000000    -2.547000000    -4.690000000
O    -3.740000000    -3.665000000    -4.606000000
C    -2.519000000    -3.690000000    -4.055000000
C    -2.058000000    -4.796000000    -3.355000000
H    -2.865000000    -5.498000000    -3.161000000
C    -0.739000000    -4.878000000    -2.940000000
O    -0.279000000    -6.010000000    -2.296000000
C     1.003000000    -6.298000000    -1.864000000
C     1.809000000    -6.957000000    -2.858000000
H     1.376000000    -7.286000000    -3.799000000
C     3.112000000    -7.298000000    -2.572000000
H     3.729000000    -7.793000000    -3.318000000
C     3.619000000    -7.053000000    -1.279000000
H     4.663000000    -7.319000000    -1.139000000
C     2.846000000    -6.282000000    -0.405000000
C     1.548000000    -5.974000000    -0.648000000
H     1.011000000    -5.499000000     0.168000000
O     1.602000000    -5.213000000     7.419000000
H     0.972000000    -4.981000000     6.737000000
H     2.243000000    -5.769000000     6.976000000
O    -7.600000000    -5.927000000     2.555000000
H    -6.887000000    -6.254000000     2.008000000
H    -8.396000000    -6.156000000     2.074000000
O    -7.213000000    -1.831000000     1.618000000
H    -6.361000000    -2.267000000     1.597000000
H    -7.594000000    -2.008000000     0.758000000
O    -5.095000000    -3.438000000     1.855000000
H    -4.489000000    -3.043000000     2.482000000
H    -4.529000000    -3.817000000     1.182000000
O    -4.698000000    -1.711000000     5.079000000
H    -5.042000000    -0.820000000     5.006000000
H    -4.216000000    -1.850000000     4.265000000
O    -6.804000000    -6.230000000     5.301000000
H    -6.148000000    -6.922000000     5.381000000
H    -6.802000000    -6.004000000     4.370000000
O    -0.689000000    -6.554000000     2.664000000
H    -1.590000000    -6.728000000     2.392000000
H    -0.654000000    -5.605000000     2.782000000
O    -4.865000000    -8.208000000     4.941000000
H    -4.065000000    -8.178000000     4.416000000
H    -4.814000000    -9.042000000     5.407000000
O    -5.834000000    -4.782000000    -1.056000000
H    -4.935000000    -4.682000000    -0.744000000
H    -6.321000000    -4.089000000    -0.609000000
O    -2.099000000    -4.626000000     6.779000000
H    -1.183000000    -4.508000000     6.527000000
H    -2.568000000    -4.693000000     5.947000000
O     0.086000000    -4.875000000     5.226000000
H    -0.669000000    -4.606000000     4.704000000
H     0.827000000    -4.818000000     4.623000000
O    -3.140000000    -4.480000000     0.001000000
H    -2.336000000    -4.033000000    -0.264000000
H    -2.837000000    -5.263000000     0.460000000
O    -3.267000000    -6.659000000     1.531000000
H    -2.999000000    -7.548000000     1.298000000
H    -4.223000000    -6.678000000     1.492000000
O     0.984000000    -8.623000000     1.996000000
H     1.839000000    -8.357000000     2.335000000
H     0.428000000    -7.853000000     2.117000000
O    -3.275000000    -5.144000000     4.429000000
H    -2.584000000    -4.697000000     3.940000000
H    -4.068000000    -4.996000000     3.913000000
O    -6.294000000    -7.088000000     0.485000000
H    -6.936000000    -7.669000000     0.078000000
H    -5.994000000    -6.524000000    -0.229000000
O    -1.835000000    -5.260000000     9.457000000
H    -2.520000000    -5.906000000     9.631000000
H    -1.913000000    -5.074000000     8.521000000
O    -4.387000000    -3.069000000     7.646000000
H    -4.554000000    -2.471000000     6.918000000
H    -3.659000000    -3.613000000     7.347000000
O    -1.866000000    -7.598000000     5.274000000
H    -1.208000000    -7.391000000     4.610000000
H    -2.576000000    -6.977000000     5.110000000
