201
-1262.24788
C    -3.060000000    -3.214000000    -3.066000000
H    -3.167000000    -2.661000000    -3.996000000
C    -3.314000000    -2.798000000    -1.743000000
C    -3.186000000    -3.636000000    -0.653000000
H    -3.332000000    -3.294000000     0.369000000
C    -3.665000000    -1.352000000    -1.462000000
O    -3.853000000    -0.745000000    -2.757000000
H    -2.855000000    -0.825000000    -0.936000000
O    -4.781000000    -1.146000000    -0.592000000
C    -4.743000000    -0.085000000     0.247000000
C    -4.352000000    -0.339000000     1.539000000
H    -4.325000000    -1.383000000     1.841000000
C    -3.920000000     0.718000000     2.379000000
O    -3.362000000     0.343000000     3.616000000
C    -4.007000000     2.033000000     1.907000000
C    -3.576000000     3.207000000     2.744000000
H    -4.104000000     4.107000000     2.421000000
C    -2.069000000     3.449000000     2.704000000
C    -1.507000000     4.354000000     1.794000000
H    -2.145000000     4.961000000     1.157000000
H    -3.960000000     3.056000000     3.755000000
C    -4.354000000     2.294000000     0.625000000
H    -4.311000000     3.329000000     0.296000000
C    -4.774000000     1.266000000    -0.211000000
C    -5.119000000     1.633000000    -1.590000000
H    -5.664000000     2.579000000    -1.594000000
H    -5.839000000     0.953000000    -2.050000000
C    -3.781000000     1.638000000    -2.406000000
C    -3.099000000     2.802000000    -2.696000000
H    -3.332000000     3.737000000    -2.194000000
C    -3.299000000     0.410000000    -2.989000000
C    -2.210000000     0.452000000    -3.804000000
H    -1.806000000    -0.438000000    -4.280000000
C    -1.552000000     1.597000000    -4.087000000
O    -0.311000000     1.500000000    -4.668000000
C     0.781000000     1.353000000    -3.802000000
C     1.581000000     0.140000000    -4.128000000
C     2.790000000    -0.052000000    -3.440000000
H     3.158000000     0.696000000    -2.742000000
C     1.205000000    -0.839000000    -4.977000000
H     0.230000000    -0.704000000    -5.436000000
O     1.486000000     2.565000000    -3.752000000
H     0.420000000     1.143000000    -2.785000000
C    -1.902000000     2.784000000    -3.402000000
C    -1.046000000     4.073000000    -3.584000000
H    -1.643000000     4.986000000    -3.639000000
H    -0.614000000     4.051000000    -4.587000000
C     0.092000000     4.241000000    -2.578000000
C    -0.152000000     4.956000000    -1.436000000
H    -1.132000000     5.387000000    -1.248000000
C     1.223000000     3.437000000    -2.648000000
C     2.183000000     3.443000000    -1.672000000
H     2.987000000     2.716000000    -1.751000000
C     2.043000000     4.243000000    -0.592000000
O     2.987000000     4.191000000     0.440000000
C     2.683000000     3.115000000     1.444000000
C     3.914000000     2.300000000     1.859000000
C     5.047000000     2.268000000     1.026000000
H     5.002000000     2.730000000     0.044000000
C     3.910000000     1.555000000     3.071000000
H     3.065000000     1.577000000     3.754000000
O     2.091000000     3.710000000     2.614000000
H     1.926000000     2.396000000     1.098000000
C     0.803000000     4.937000000    -0.456000000
C     0.409000000     5.580000000     0.870000000
H    -0.325000000     6.364000000     0.675000000
H     1.307000000     6.037000000     1.293000000
C    -0.122000000     4.598000000     1.879000000
C     0.717000000     3.807000000     2.730000000
C     0.167000000     2.901000000     3.610000000
H     0.864000000     2.246000000     4.127000000
C    -1.237000000     2.745000000     3.610000000
O    -1.606000000     1.671000000     4.442000000
C    -1.888000000     0.402000000     3.802000000
H    -1.483000000     0.429000000     2.780000000
C    -1.327000000    -0.828000000     4.481000000
C    -1.900000000    -2.080000000     4.276000000
H    -2.875000000    -2.201000000     3.813000000
C    -0.163000000    -0.746000000     5.196000000
H     0.347000000     0.215000000     5.208000000
C     0.355000000    -1.890000000     5.828000000
O     1.454000000    -1.843000000     6.703000000
C    -0.174000000    -3.161000000     5.611000000
H     0.230000000    -4.059000000     6.071000000
C    -1.385000000    -3.218000000     4.905000000
O    -1.872000000    -4.492000000     4.726000000
C    -2.717000000    -4.897000000     3.706000000
C    -2.174000000    -5.230000000     2.453000000
H    -1.096000000    -5.337000000     2.359000000
C    -4.101000000    -4.932000000     3.913000000
H    -4.484000000    -4.663000000     4.894000000
C    -4.960000000    -5.328000000     2.870000000
H    -6.030000000    -5.467000000     2.995000000
C    -4.415000000    -5.711000000     1.661000000
H    -4.989000000    -5.969000000     0.774000000
C    -3.024000000    -5.663000000     1.454000000
O    -2.606000000    -5.909000000     0.189000000
C    -2.808000000    -4.958000000    -0.890000000
C    -2.662000000    -5.367000000    -2.225000000
H    -2.289000000    -6.369000000    -2.421000000
C    -2.696000000    -4.484000000    -3.287000000
O    -2.561000000    -4.958000000    -4.629000000
C    -1.827000000    -4.322000000    -5.617000000
C    -0.530000000    -3.955000000    -5.401000000
H    -0.126000000    -4.144000000    -4.410000000
C    -2.428000000    -4.090000000    -6.873000000
H    -3.480000000    -4.302000000    -7.048000000
C    -1.656000000    -3.483000000    -7.865000000
H    -2.105000000    -3.182000000    -8.808000000
C    -0.347000000    -3.140000000    -7.637000000
H     0.228000000    -2.710000000    -8.454000000
C     0.169000000    -3.256000000    -6.366000000
O     1.481000000    -2.957000000    -6.095000000
C     1.902000000    -2.029000000    -5.153000000
C     3.124000000    -2.183000000    -4.464000000
H     3.680000000    -3.101000000    -4.632000000
C     3.544000000    -1.204000000    -3.602000000
O     4.753000000    -1.444000000    -2.916000000
C     5.630000000    -0.400000000    -2.571000000
C     5.957000000    -0.081000000    -1.287000000
H     5.528000000    -0.716000000    -0.516000000
C     6.104000000     0.440000000    -3.574000000
H     5.916000000     0.318000000    -4.637000000
C     6.927000000     1.527000000    -3.253000000
H     7.317000000     2.181000000    -4.029000000
C     7.206000000     1.853000000    -1.951000000
H     7.840000000     2.722000000    -1.795000000
C     6.741000000     1.037000000    -0.942000000
O     7.056000000     1.182000000     0.408000000
C     6.020000000     1.321000000     1.312000000
C     6.163000000     0.806000000     2.597000000
H     7.062000000     0.233000000     2.812000000
C     5.071000000     0.825000000     3.406000000
O     5.278000000     0.160000000     4.613000000
C     4.262000000     0.163000000     5.572000000
C     4.182000000     1.179000000     6.528000000
H     4.983000000     1.911000000     6.462000000
C     3.401000000     1.089000000     7.683000000
H     3.483000000     1.806000000     8.496000000
C     2.473000000     0.051000000     7.684000000
H     1.776000000     0.042000000     8.517000000
C     2.391000000    -0.841000000     6.619000000
C     3.259000000    -0.781000000     5.577000000
H     3.325000000    -1.618000000     4.886000000
O     7.773000000    -4.190000000     3.211000000
H     7.400000000    -5.068000000     3.135000000
H     7.668000000    -3.963000000     4.135000000
O     6.742000000    -4.619000000    -4.731000000
H     6.135000000    -4.883000000    -5.422000000
H     6.177000000    -4.362000000    -4.002000000
O     4.104000000    -5.565000000     4.396000000
H     4.193000000    -4.620000000     4.267000000
H     3.181000000    -5.745000000     4.218000000
O     2.002000000    -7.791000000     2.331000000
H     2.358000000    -7.806000000     1.442000000
H     2.171000000    -8.670000000     2.671000000
O     7.973000000    -6.520000000     0.334000000
H     8.194000000    -5.653000000    -0.006000000
H     7.179000000    -6.380000000     0.850000000
O    -1.427000000    -8.260000000    -0.218000000
H    -1.774000000    -7.368000000    -0.207000000
H    -1.784000000    -8.665000000     0.572000000
O     5.270000000    -6.119000000     1.085000000
H     4.958000000    -6.758000000     0.445000000
H     4.670000000    -5.379000000     0.996000000
O     0.025000000    -6.736000000     4.708000000
H    -0.428000000    -5.934000000     4.970000000
H     0.439000000    -6.515000000     3.874000000
O     7.663000000    -2.387000000     1.031000000
H     7.406000000    -2.896000000     1.799000000
H     8.479000000    -1.959000000     1.289000000
O     4.887000000    -4.959000000    -2.366000000
H     4.868000000    -5.900000000    -2.536000000
H     4.171000000    -4.812000000    -1.748000000
O     3.250000000    -7.435000000    -0.208000000
H     2.902000000    -6.551000000    -0.327000000
H     3.296000000    -7.795000000    -1.094000000
O     2.851000000    -6.385000000    -4.888000000
H     3.629000000    -6.756000000    -4.472000000
H     3.191000000    -5.879000000    -5.625000000
O     1.501000000    -4.957000000     3.065000000
H     1.967000000    -4.169000000     2.784000000
H     1.804000000    -5.640000000     2.467000000
O    -0.205000000    -8.494000000    -2.807000000
H    -0.496000000    -8.682000000    -1.915000000
H     0.262000000    -7.661000000    -2.737000000
O     4.867000000    -7.740000000    -3.007000000
H     4.903000000    -8.103000000    -2.122000000
H     5.479000000    -8.276000000    -3.510000000
O     1.330000000    -6.175000000    -2.826000000
H     1.908000000    -6.243000000    -3.586000000
H     1.792000000    -5.590000000    -2.225000000
O     6.653000000    -6.746000000     3.262000000
H     6.009000000    -6.791000000     2.555000000
H     6.129000000    -6.725000000     4.063000000
O     4.297000000    -3.071000000     3.302000000
H     3.970000000    -3.552000000     2.542000000
H     4.492000000    -2.196000000     2.966000000
O     7.596000000    -4.228000000    -1.162000000
H     6.808000000    -4.476000000    -1.645000000
H     7.292000000    -3.587000000    -0.519000000
