201
-1237.25270
C    -1.045000000     2.760000000     4.380000000
H    -1.429000000     3.502000000     3.685000000
C     0.271000000     2.295000000     4.195000000
C     0.762000000     1.182000000     4.887000000
H     1.833000000     1.005000000     4.819000000
C     1.069000000     2.911000000     3.022000000
O     0.716000000     4.308000000     2.657000000
H     0.790000000     2.308000000     2.145000000
O     2.525000000     2.739000000     3.195000000
C     3.243000000     2.335000000     2.212000000
C     3.688000000     1.025000000     2.193000000
H     3.470000000     0.456000000     3.093000000
C     4.378000000     0.560000000     1.115000000
O     4.706000000    -0.701000000     1.157000000
C     4.579000000     1.283000000    -0.048000000
C     5.322000000     0.783000000    -1.266000000
H     5.780000000     1.602000000    -1.825000000
C     4.458000000    -0.078000000    -2.167000000
C     3.850000000     0.551000000    -3.253000000
H     4.072000000     1.591000000    -3.480000000
H     6.162000000     0.323000000    -0.742000000
C     4.080000000     2.582000000    -0.060000000
H     4.320000000     3.126000000    -0.971000000
C     3.473000000     3.125000000     1.074000000
C     2.925000000     4.509000000     0.939000000
H     3.561000000     5.164000000     0.340000000
H     2.935000000     5.037000000     1.895000000
C     1.560000000     4.579000000     0.389000000
C     1.266000000     4.693000000    -0.945000000
H     1.912000000     4.760000000    -1.816000000
C     0.470000000     4.475000000     1.274000000
C    -0.840000000     4.480000000     0.846000000
H    -1.604000000     4.463000000     1.619000000
C    -1.085000000     4.372000000    -0.525000000
O    -2.288000000     3.962000000    -0.983000000
C    -2.520000000     2.708000000    -1.524000000
C    -3.795000000     2.121000000    -0.932000000
C    -4.466000000     1.061000000    -1.562000000
H    -4.017000000     0.622000000    -2.449000000
C    -4.309000000     2.670000000     0.252000000
H    -3.822000000     3.518000000     0.727000000
O    -2.575000000     2.818000000    -2.923000000
H    -1.603000000     2.132000000    -1.330000000
C    -0.030000000     4.468000000    -1.427000000
C    -0.278000000     4.533000000    -2.934000000
H     0.508000000     5.148000000    -3.377000000
H    -1.210000000     5.060000000    -3.149000000
C    -0.289000000     3.146000000    -3.559000000
C     0.910000000     2.592000000    -4.039000000
H     1.809000000     3.201000000    -4.017000000
C    -1.473000000     2.370000000    -3.637000000
C    -1.435000000     1.089000000    -4.157000000
H    -2.310000000     0.444000000    -4.188000000
C    -0.201000000     0.635000000    -4.597000000
O    -0.104000000    -0.646000000    -4.979000000
C     0.393000000    -1.536000000    -4.006000000
C    -0.656000000    -2.634000000    -3.834000000
C    -1.941000000    -2.497000000    -4.324000000
H    -2.219000000    -1.604000000    -4.879000000
C    -0.310000000    -3.804000000    -3.074000000
H     0.730000000    -3.888000000    -2.769000000
O     1.647000000    -2.086000000    -4.459000000
H     0.528000000    -0.918000000    -3.106000000
C     0.980000000     1.349000000    -4.650000000
C     2.291000000     0.778000000    -5.173000000
H     2.999000000     1.516000000    -5.558000000
H     2.099000000     0.185000000    -6.070000000
C     3.003000000    -0.064000000    -4.084000000
C     2.736000000    -1.391000000    -3.835000000
C     3.310000000    -2.063000000    -2.809000000
H     3.086000000    -3.119000000    -2.677000000
C     4.180000000    -1.404000000    -1.922000000
O     4.562000000    -2.006000000    -0.702000000
C     3.909000000    -1.651000000     0.478000000
H     2.877000000    -1.315000000     0.297000000
C     3.673000000    -2.905000000     1.330000000
C     3.804000000    -2.793000000     2.721000000
H     4.158000000    -1.876000000     3.186000000
C     3.233000000    -4.123000000     0.815000000
H     3.010000000    -4.217000000    -0.245000000
C     3.019000000    -5.190000000     1.658000000
O     2.674000000    -6.458000000     1.144000000
C     3.061000000    -5.062000000     3.034000000
H     2.786000000    -5.884000000     3.689000000
C     3.432000000    -3.846000000     3.599000000
O     3.434000000    -3.649000000     4.967000000
C     3.184000000    -2.536000000     5.692000000
C     1.905000000    -1.994000000     5.780000000
H     1.026000000    -2.510000000     5.400000000
C     4.203000000    -1.882000000     6.421000000
H     5.223000000    -2.253000000     6.361000000
C     3.947000000    -0.777000000     7.199000000
H     4.720000000    -0.175000000     7.670000000
C     2.725000000    -0.199000000     7.208000000
H     2.555000000     0.742000000     7.725000000
C     1.704000000    -0.874000000     6.477000000
O     0.432000000    -0.369000000     6.648000000
C    -0.054000000     0.588000000     5.819000000
C    -1.387000000     0.990000000     6.002000000
H    -1.939000000     0.430000000     6.753000000
C    -1.920000000     2.116000000     5.289000000
O    -3.267000000     2.486000000     5.551000000
C    -3.901000000     3.256000000     4.598000000
C    -4.699000000     2.688000000     3.665000000
H    -4.781000000     1.604000000     3.692000000
C    -3.762000000     4.637000000     4.654000000
H    -3.100000000     5.078000000     5.394000000
C    -4.348000000     5.413000000     3.619000000
H    -4.228000000     6.492000000     3.566000000
C    -5.200000000     4.825000000     2.701000000
H    -5.395000000     5.310000000     1.748000000
C    -5.446000000     3.465000000     2.789000000
O    -6.166000000     2.704000000     1.847000000
C    -5.575000000     2.214000000     0.715000000
C    -6.140000000     1.142000000     0.078000000
H    -7.088000000     0.865000000     0.531000000
C    -5.647000000     0.544000000    -1.013000000
O    -6.314000000    -0.539000000    -1.537000000
C    -6.143000000    -0.905000000    -2.853000000
C    -5.231000000    -1.923000000    -3.067000000
H    -4.731000000    -2.374000000    -2.213000000
C    -6.814000000    -0.288000000    -3.932000000
H    -7.556000000     0.484000000    -3.742000000
C    -6.585000000    -0.695000000    -5.210000000
H    -6.974000000    -0.096000000    -6.030000000
C    -5.700000000    -1.841000000    -5.360000000
H    -5.508000000    -2.208000000    -6.365000000
C    -4.986000000    -2.408000000    -4.340000000
O    -4.167000000    -3.497000000    -4.543000000
C    -2.892000000    -3.482000000    -4.097000000
C    -2.595000000    -4.573000000    -3.307000000
H    -3.354000000    -5.324000000    -3.105000000
C    -1.282000000    -4.743000000    -2.776000000
O    -1.064000000    -5.810000000    -1.960000000
C     0.189000000    -6.325000000    -1.582000000
C     0.774000000    -7.273000000    -2.459000000
H     0.289000000    -7.536000000    -3.396000000
C     1.993000000    -7.893000000    -2.095000000
H     2.377000000    -8.529000000    -2.888000000
C     2.648000000    -7.618000000    -0.934000000
H     3.662000000    -7.981000000    -0.788000000
C     2.101000000    -6.687000000    -0.056000000
C     0.830000000    -6.124000000    -0.357000000
H     0.319000000    -5.496000000     0.369000000
O    -0.947000000    -4.134000000     8.476000000
H    -0.637000000    -3.258000000     8.710000000
H    -0.549000000    -4.309000000     7.623000000
O    -5.380000000    -3.219000000     4.455000000
H    -5.157000000    -3.878000000     3.797000000
H    -4.590000000    -2.684000000     4.536000000
O    -7.627000000     0.082000000     3.698000000
H    -6.926000000    -0.283000000     3.158000000
H    -8.414000000    -0.006000000     3.161000000
O    -5.562000000    -1.090000000     2.437000000
H    -5.115000000    -1.148000000     3.282000000
H    -4.861000000    -0.922000000     1.807000000
O    -5.102000000     0.027000000     6.335000000
H    -4.900000000     0.942000000     6.533000000
H    -4.498000000    -0.204000000     5.629000000
O    -7.688000000    -4.243000000     5.548000000
H    -7.166000000    -3.713000000     4.946000000
H    -7.923000000    -5.020000000     5.041000000
O    -1.810000000    -4.940000000     2.840000000
H    -2.188000000    -4.901000000     1.961000000
H    -1.966000000    -4.070000000     3.206000000
O    -6.203000000    -3.471000000     0.107000000
H    -5.972000000    -2.547000000     0.014000000
H    -6.850000000    -3.626000000    -0.581000000
O    -3.502000000    -4.865000000     9.290000000
H    -2.556000000    -4.783000000     9.167000000
H    -3.880000000    -4.497000000     8.491000000
O    -3.076000000    -2.396000000     6.736000000
H    -2.943000000    -2.283000000     5.794000000
H    -3.774000000    -1.779000000     6.955000000
O    -1.020000000    -7.221000000     4.196000000
H    -1.190000000    -6.588000000     3.498000000
H    -0.725000000    -8.008000000     3.739000000
O    -7.150000000     2.215000000     5.129000000
H    -6.273000000     1.964000000     5.417000000
H    -7.410000000     1.522000000     4.521000000
O    -7.542000000    -1.164000000     6.165000000
H    -7.812000000    -0.720000000     5.361000000
H    -6.588000000    -1.088000000     6.171000000
O    -0.629000000    -4.832000000     5.629000000
H    -1.169000000    -4.249000000     5.095000000
H    -0.681000000    -5.679000000     5.186000000
O    -3.155000000    -2.130000000     0.052000000
H    -2.317000000    -1.972000000     0.487000000
H    -3.319000000    -3.065000000     0.180000000
O    -2.750000000    -5.005000000     0.267000000
H    -2.312000000    -5.163000000    -0.569000000
H    -3.223000000    -5.818000000     0.447000000
O    -7.704000000    -3.057000000     2.658000000
H    -7.345000000    -3.520000000     1.901000000
H    -7.169000000    -2.267000000     2.731000000
O    -4.286000000    -4.866000000     6.501000000
H    -3.559000000    -4.247000000     6.566000000
H    -4.969000000    -4.386000000     6.032000000
O    -4.870000000    -0.175000000     9.237000000
H    -5.388000000     0.128000000     8.492000000
H    -4.048000000    -0.478000000     8.851000000
