201
-1236.20419
C    -2.692000000     2.604000000     2.828000000
H    -2.747000000     3.355000000     2.044000000
C    -1.497000000     2.392000000     3.439000000
C    -1.520000000     1.549000000     4.562000000
H    -0.576000000     1.258000000     5.014000000
C    -0.267000000     3.028000000     2.882000000
O    -0.429000000     4.419000000     2.424000000
H     0.014000000     2.510000000     1.953000000
O     0.891000000     2.950000000     3.792000000
C     1.946000000     2.326000000     3.143000000
C     2.285000000     1.061000000     3.523000000
H     1.646000000     0.619000000     4.282000000
C     3.266000000     0.333000000     2.779000000
O     3.382000000    -1.020000000     2.979000000
C     4.065000000     1.047000000     1.841000000
C     5.282000000     0.484000000     1.185000000
H     5.985000000     1.298000000     0.994000000
C     4.839000000    -0.218000000    -0.100000000
C     4.773000000     0.522000000    -1.304000000
H     5.209000000     1.509000000    -1.439000000
H     5.780000000    -0.254000000     1.817000000
C     3.814000000     2.444000000     1.640000000
H     4.355000000     2.939000000     0.838000000
C     2.729000000     3.038000000     2.260000000
C     2.504000000     4.518000000     2.085000000
H     3.452000000     5.014000000     1.867000000
H     2.130000000     4.885000000     3.043000000
C     1.492000000     4.745000000     1.022000000
C     1.989000000     4.785000000    -0.258000000
H     3.058000000     4.780000000    -0.457000000
C     0.138000000     4.795000000     1.254000000
C    -0.757000000     4.971000000     0.252000000
H    -1.833000000     4.941000000     0.405000000
C    -0.269000000     5.021000000    -1.059000000
O    -1.277000000     4.790000000    -2.026000000
C    -1.401000000     3.426000000    -2.397000000
C    -2.850000000     3.057000000    -2.522000000
C    -3.105000000     1.704000000    -2.773000000
H    -2.354000000     1.011000000    -3.145000000
C    -3.860000000     3.895000000    -2.079000000
H    -3.746000000     4.933000000    -1.777000000
O    -0.738000000     3.239000000    -3.663000000
H    -0.940000000     2.762000000    -1.651000000
C     1.093000000     4.852000000    -1.322000000
C     1.564000000     4.744000000    -2.766000000
H     2.532000000     5.250000000    -2.749000000
H     0.960000000     5.426000000    -3.368000000
C     1.662000000     3.275000000    -3.264000000
C     2.913000000     2.646000000    -3.354000000
H     3.813000000     3.176000000    -3.051000000
C     0.477000000     2.632000000    -3.623000000
C     0.539000000     1.256000000    -3.974000000
H    -0.418000000     0.858000000    -4.300000000
C     1.779000000     0.620000000    -4.068000000
O     1.783000000    -0.698000000    -4.426000000
C     1.865000000    -1.731000000    -3.357000000
C     1.006000000    -2.976000000    -3.619000000
C    -0.288000000    -2.946000000    -4.093000000
H    -0.652000000    -1.999000000    -4.484000000
C     1.490000000    -4.224000000    -3.200000000
H     2.519000000    -4.422000000    -2.913000000
O     3.224000000    -2.151000000    -3.345000000
H     1.554000000    -1.307000000    -2.391000000
C     2.978000000     1.373000000    -3.824000000
C     4.310000000     0.649000000    -3.796000000
H     5.197000000     1.275000000    -3.913000000
H     4.465000000    -0.022000000    -4.643000000
C     4.406000000    -0.170000000    -2.474000000
C     3.916000000    -1.512000000    -2.334000000
C     3.957000000    -2.156000000    -1.155000000
H     3.554000000    -3.162000000    -1.064000000
C     4.333000000    -1.524000000    -0.036000000
O     4.185000000    -2.222000000     1.189000000
C     2.974000000    -1.909000000     1.854000000
H     2.258000000    -1.391000000     1.199000000
C     2.185000000    -3.108000000     2.381000000
C     1.258000000    -2.950000000     3.419000000
H     1.059000000    -1.962000000     3.827000000
C     2.339000000    -4.375000000     1.794000000
H     2.849000000    -4.406000000     0.835000000
C     1.658000000    -5.490000000     2.299000000
O     1.845000000    -6.762000000     1.787000000
C     0.827000000    -5.324000000     3.463000000
H     0.330000000    -6.172000000     3.926000000
C     0.657000000    -4.070000000     4.029000000
O    -0.160000000    -3.923000000     5.131000000
C    -0.332000000    -2.820000000     5.917000000
C    -1.194000000    -1.800000000     5.504000000
H    -1.525000000    -1.841000000     4.469000000
C     0.183000000    -2.783000000     7.211000000
H     0.786000000    -3.574000000     7.649000000
C    -0.214000000    -1.798000000     8.019000000
H    -0.119000000    -1.943000000     9.092000000
C    -1.128000000    -0.797000000     7.639000000
H    -1.594000000    -0.171000000     8.396000000
C    -1.661000000    -0.829000000     6.412000000
O    -2.684000000     0.042000000     6.096000000
C    -2.693000000     0.976000000     5.035000000
C    -3.887000000     1.332000000     4.489000000
H    -4.838000000     0.974000000     4.875000000
C    -3.887000000     2.131000000     3.350000000
O    -5.107000000     2.364000000     2.899000000
C    -5.395000000     3.457000000     2.193000000
C    -5.763000000     3.330000000     0.904000000
H    -5.773000000     2.318000000     0.507000000
C    -5.457000000     4.736000000     2.792000000
H    -5.224000000     4.775000000     3.853000000
C    -5.774000000     5.825000000     2.012000000
H    -5.733000000     6.836000000     2.407000000
C    -6.015000000     5.720000000     0.641000000
H    -6.149000000     6.627000000     0.057000000
C    -6.035000000     4.433000000     0.096000000
O    -6.095000000     4.222000000    -1.244000000
C    -5.170000000     3.410000000    -1.899000000
C    -5.431000000     2.097000000    -2.223000000
H    -6.435000000     1.748000000    -1.998000000
C    -4.445000000     1.241000000    -2.675000000
O    -4.726000000    -0.092000000    -3.083000000
C    -4.107000000    -0.680000000    -4.137000000
C    -3.458000000    -1.898000000    -3.933000000
H    -3.296000000    -2.269000000    -2.924000000
C    -4.372000000    -0.329000000    -5.461000000
H    -4.840000000     0.638000000    -5.628000000
C    -3.815000000    -1.050000000    -6.502000000
H    -3.922000000    -0.688000000    -7.521000000
C    -3.084000000    -2.244000000    -6.297000000
H    -2.575000000    -2.714000000    -7.135000000
C    -3.052000000    -2.713000000    -4.995000000
O    -2.434000000    -3.932000000    -4.745000000
C    -1.154000000    -4.051000000    -4.074000000
C    -0.662000000    -5.210000000    -3.621000000
H    -1.360000000    -6.042000000    -3.589000000
C     0.603000000    -5.310000000    -3.162000000
O     1.030000000    -6.580000000    -2.908000000
C     1.823000000    -6.816000000    -1.892000000
C     2.914000000    -7.668000000    -2.082000000
H     3.276000000    -7.892000000    -3.082000000
C     3.685000000    -8.153000000    -1.001000000
H     4.463000000    -8.889000000    -1.191000000
C     3.199000000    -7.973000000     0.248000000
H     3.749000000    -8.479000000     1.037000000
C     2.163000000    -7.078000000     0.473000000
C     1.371000000    -6.552000000    -0.591000000
H     0.473000000    -5.971000000    -0.396000000
O    -7.916000000    -4.313000000     2.336000000
H    -7.472000000    -4.520000000     1.513000000
H    -7.268000000    -3.820000000     2.839000000
O    -2.062000000    -5.829000000     5.886000000
H    -1.619000000    -5.113000000     5.430000000
H    -2.972000000    -5.770000000     5.596000000
O    -6.680000000    -1.818000000     2.843000000
H    -5.941000000    -1.831000000     2.235000000
H    -6.956000000    -0.902000000     2.864000000
O    -4.120000000    -3.010000000     4.309000000
H    -3.440000000    -3.366000000     3.737000000
H    -4.894000000    -2.944000000     3.748000000
O    -6.578000000    -3.101000000    -2.389000000
H    -5.797000000    -3.651000000    -2.454000000
H    -6.497000000    -2.483000000    -3.115000000
O    -6.094000000    -4.922000000     0.315000000
H    -5.253000000    -4.517000000     0.527000000
H    -6.406000000    -4.437000000    -0.449000000
O    -8.043000000     0.523000000     2.824000000
H    -8.141000000     1.474000000     2.863000000
H    -8.188000000     0.305000000     1.903000000
O    -8.846000000    -0.189000000     0.286000000
H    -8.118000000    -0.810000000     0.321000000
H    -9.141000000    -0.217000000    -0.624000000
O    -2.631000000    -7.934000000     1.126000000
H    -1.901000000    -8.519000000     1.328000000
H    -3.405000000    -8.497000000     1.160000000
O    -4.559000000    -5.683000000     4.937000000
H    -4.341000000    -5.817000000     4.014000000
H    -4.841000000    -4.770000000     4.987000000
O    -6.590000000    -1.623000000    -0.156000000
H    -5.786000000    -1.857000000     0.307000000
H    -6.577000000    -2.161000000    -0.948000000
O    -3.035000000    -5.995000000    -0.642000000
H    -2.856000000    -6.624000000     0.057000000
H    -3.255000000    -5.184000000    -0.184000000
O    -4.526000000    -4.848000000    -2.797000000
H    -5.054000000    -5.555000000    -2.424000000
H    -3.695000000    -4.895000000    -2.324000000
O    -7.115000000    -2.832000000     5.434000000
H    -7.477000000    -2.016000000     5.781000000
H    -6.975000000    -2.654000000     4.504000000
O    -9.217000000    -3.687000000    -2.492000000
H    -9.332000000    -3.457000000    -3.414000000
H    -8.369000000    -3.311000000    -2.256000000
O    -3.638000000    -3.680000000     7.494000000
H    -4.561000000    -3.920000000     7.571000000
H    -3.588000000    -3.174000000     6.683000000
O    -6.899000000    -6.907000000     4.377000000
H    -6.015000000    -6.540000000     4.394000000
H    -7.138000000    -6.997000000     5.299000000
O    -3.407000000    -5.706000000     2.580000000
H    -3.666000000    -4.976000000     2.017000000
H    -3.008000000    -6.339000000     1.983000000
O    -2.709000000    -8.232000000    -2.589000000
H    -3.119000000    -7.933000000    -3.401000000
H    -3.039000000    -7.632000000    -1.920000000
