201
-1250.49899
C    -2.473000000     3.170000000     3.505000000
H    -2.618000000     3.990000000     2.806000000
C    -1.300000000     2.465000000     3.628000000
C    -1.205000000     1.430000000     4.587000000
H    -0.284000000     0.855000000     4.637000000
C    -0.042000000     2.929000000     2.943000000
O    -0.219000000     4.289000000     2.436000000
H     0.219000000     2.285000000     2.090000000
O     1.058000000     3.028000000     3.801000000
C     2.232000000     2.449000000     3.252000000
C     2.516000000     1.108000000     3.562000000
H     1.911000000     0.432000000     4.161000000
C     3.610000000     0.477000000     2.913000000
O     3.655000000    -0.900000000     3.078000000
C     4.404000000     1.278000000     2.003000000
C     5.473000000     0.556000000     1.099000000
H     6.297000000     1.195000000     0.773000000
C     4.902000000    -0.202000000    -0.123000000
C     4.847000000     0.366000000    -1.382000000
H     5.163000000     1.401000000    -1.480000000
H     5.990000000    -0.154000000     1.747000000
C     4.139000000     2.663000000     1.795000000
H     4.676000000     3.124000000     0.970000000
C     3.085000000     3.228000000     2.453000000
C     2.600000000     4.591000000     1.922000000
H     3.489000000     5.084000000     1.524000000
H     2.285000000     5.223000000     2.756000000
C     1.506000000     4.510000000     0.832000000
C     1.926000000     4.600000000    -0.520000000
H     2.982000000     4.762000000    -0.722000000
C     0.173000000     4.382000000     1.133000000
C    -0.747000000     4.248000000     0.110000000
H    -1.794000000     4.078000000     0.349000000
C    -0.362000000     4.348000000    -1.174000000
O    -1.302000000     4.185000000    -2.140000000
C    -1.531000000     2.841000000    -2.502000000
C    -2.996000000     2.413000000    -2.426000000
C    -3.386000000     1.190000000    -2.931000000
H    -2.766000000     0.680000000    -3.663000000
C    -3.929000000     3.138000000    -1.658000000
H    -3.744000000     4.124000000    -1.239000000
O    -0.905000000     2.739000000    -3.798000000
H    -0.935000000     2.194000000    -1.842000000
C     0.962000000     4.496000000    -1.531000000
C     1.339000000     4.410000000    -3.012000000
H     2.325000000     4.879000000    -3.038000000
H     0.615000000     4.968000000    -3.610000000
C     1.517000000     2.999000000    -3.537000000
C     2.737000000     2.372000000    -3.559000000
H     3.620000000     2.887000000    -3.191000000
C     0.362000000     2.302000000    -3.916000000
C     0.537000000     0.978000000    -4.411000000
H    -0.337000000     0.386000000    -4.671000000
C     1.842000000     0.458000000    -4.509000000
O     2.022000000    -0.900000000    -4.796000000
C     1.988000000    -1.820000000    -3.703000000
C     1.088000000    -3.050000000    -4.026000000
C    -0.126000000    -2.928000000    -4.727000000
H    -0.436000000    -1.902000000    -4.907000000
C     1.484000000    -4.349000000    -3.689000000
H     2.484000000    -4.528000000    -3.304000000
O     3.278000000    -2.309000000    -3.332000000
H     1.519000000    -1.309000000    -2.849000000
C     2.925000000     1.064000000    -4.015000000
C     4.273000000     0.420000000    -3.872000000
H     5.073000000     1.157000000    -3.972000000
H     4.615000000    -0.195000000    -4.707000000
C     4.380000000    -0.328000000    -2.506000000
C     3.888000000    -1.621000000    -2.369000000
C     4.044000000    -2.287000000    -1.149000000
H     3.722000000    -3.309000000    -0.967000000
C     4.389000000    -1.548000000    -0.003000000
O     4.188000000    -2.219000000     1.198000000
C     3.127000000    -1.702000000     2.025000000
H     2.579000000    -1.060000000     1.319000000
C     2.199000000    -2.779000000     2.567000000
C     1.783000000    -2.772000000     3.940000000
H     2.096000000    -2.077000000     4.715000000
C     1.668000000    -3.735000000     1.628000000
H     1.926000000    -3.786000000     0.573000000
C     0.687000000    -4.635000000     2.136000000
O     0.238000000    -5.715000000     1.409000000
C     0.298000000    -4.605000000     3.480000000
H    -0.442000000    -5.307000000     3.856000000
C     0.897000000    -3.766000000     4.373000000
O     0.479000000    -3.841000000     5.645000000
C     0.073000000    -2.707000000     6.395000000
C    -0.999000000    -1.931000000     5.929000000
H    -1.360000000    -1.998000000     4.906000000
C     0.585000000    -2.368000000     7.661000000
H     1.303000000    -3.075000000     8.068000000
C     0.000000000    -1.416000000     8.521000000
H     0.379000000    -1.253000000     9.526000000
C    -0.977000000    -0.545000000     7.950000000
H    -1.155000000     0.422000000     8.413000000
C    -1.499000000    -0.853000000     6.688000000
O    -2.440000000    -0.033000000     6.160000000
C    -2.326000000     1.050000000     5.324000000
C    -3.544000000     1.780000000     5.197000000
H    -4.449000000     1.394000000     5.661000000
C    -3.627000000     2.843000000     4.245000000
O    -4.811000000     3.447000000     3.946000000
C    -5.194000000     4.012000000     2.795000000
C    -5.502000000     3.285000000     1.604000000
H    -5.464000000     2.200000000     1.667000000
C    -5.184000000     5.452000000     2.654000000
H    -4.999000000     6.136000000     3.478000000
C    -5.481000000     6.114000000     1.479000000
H    -5.361000000     7.194000000     1.453000000
C    -5.838000000     5.370000000     0.363000000
H    -6.097000000     5.823000000    -0.591000000
C    -5.825000000     3.985000000     0.423000000
O    -6.159000000     3.345000000    -0.787000000
C    -5.205000000     2.588000000    -1.401000000
C    -5.532000000     1.285000000    -1.867000000
H    -6.533000000     0.965000000    -1.586000000
C    -4.611000000     0.594000000    -2.664000000
O    -4.917000000    -0.648000000    -3.192000000
C    -4.354000000    -1.120000000    -4.364000000
C    -3.583000000    -2.267000000    -4.269000000
H    -3.478000000    -2.685000000    -3.271000000
C    -4.616000000    -0.458000000    -5.525000000
H    -5.285000000     0.399000000    -5.506000000
C    -3.849000000    -0.888000000    -6.656000000
H    -3.845000000    -0.357000000    -7.604000000
C    -2.899000000    -1.877000000    -6.603000000
H    -2.267000000    -2.133000000    -7.450000000
C    -2.902000000    -2.713000000    -5.422000000
O    -2.241000000    -3.874000000    -5.421000000
C    -0.941000000    -4.043000000    -4.903000000
C    -0.608000000    -5.331000000    -4.433000000
H    -1.283000000    -6.178000000    -4.517000000
C     0.606000000    -5.451000000    -3.837000000
O     0.932000000    -6.623000000    -3.209000000
C     1.373000000    -6.662000000    -1.911000000
C     2.457000000    -7.471000000    -1.658000000
H     2.950000000    -7.893000000    -2.530000000
C     2.801000000    -7.830000000    -0.320000000
H     3.483000000    -8.644000000    -0.087000000
C     2.109000000    -7.176000000     0.714000000
H     2.348000000    -7.449000000     1.738000000
C     0.987000000    -6.318000000     0.430000000
C     0.566000000    -6.140000000    -0.916000000
H    -0.223000000    -5.451000000    -1.209000000
O    -6.422000000    -7.261000000    -1.950000000
H    -5.995000000    -6.560000000    -1.457000000
H    -7.353000000    -7.043000000    -1.918000000
O    -8.788000000    -4.831000000     1.550000000
H    -8.999000000    -3.906000000     1.427000000
H    -8.090000000    -4.832000000     2.206000000
O    -5.434000000    -1.792000000     2.340000000
H    -5.087000000    -2.039000000     1.483000000
H    -5.806000000    -0.920000000     2.206000000
O    -4.045000000    -4.010000000     4.208000000
H    -3.836000000    -4.359000000     3.341000000
H    -4.665000000    -3.301000000     4.037000000
O    -6.444000000    -4.209000000    -3.920000000
H    -5.648000000    -4.505000000    -4.360000000
H    -6.512000000    -4.767000000    -3.146000000
O    -6.040000000    -4.637000000    -1.185000000
H    -5.133000000    -4.338000000    -1.117000000
H    -6.557000000    -3.921000000    -0.817000000
O    -7.231000000     0.825000000     2.779000000
H    -6.905000000     0.970000000     3.667000000
H    -8.175000000     0.975000000     2.844000000
O    -9.423000000    -1.351000000    -0.047000000
H    -8.466000000    -1.327000000    -0.042000000
H    -9.642000000    -2.033000000    -0.682000000
O    -9.637000000    -3.241000000    -1.940000000
H    -8.904000000    -3.856000000    -1.915000000
H   -10.344000000    -3.729000000    -2.363000000
O    -3.015000000    -8.608000000    -0.172000000
H    -2.269000000    -9.089000000     0.189000000
H    -3.683000000    -8.653000000     0.513000000
O    -3.591000000    -6.898000000     4.090000000
H    -3.645000000    -6.560000000     3.196000000
H    -3.743000000    -6.134000000     4.645000000
O    -6.952000000    -1.641000000    -0.885000000
H    -6.065000000    -1.833000000    -0.579000000
H    -6.829000000    -1.282000000    -1.764000000
O    -2.573000000    -6.003000000    -1.886000000
H    -2.725000000    -6.693000000    -1.241000000
H    -2.808000000    -5.194000000    -1.432000000
O    -7.870000000    -2.019000000    -5.153000000
H    -7.615000000    -2.687000000    -4.516000000
H    -8.714000000    -1.697000000    -4.837000000
O    -3.993000000    -6.074000000    -4.206000000
H    -3.404000000    -5.961000000    -3.460000000
H    -3.437000000    -5.936000000    -4.973000000
O    -8.275000000    -2.539000000     3.529000000
H    -8.204000000    -3.276000000     4.136000000
H    -7.375000000    -2.228000000     3.426000000
O    -3.332000000    -4.177000000     6.872000000
H    -3.864000000    -4.947000000     7.074000000
H    -3.409000000    -4.076000000     5.923000000
O    -6.905000000    -5.343000000     3.302000000
H    -7.150000000    -5.127000000     4.202000000
H    -5.949000000    -5.389000000     3.320000000
O    -4.027000000    -5.441000000     1.705000000
H    -3.586000000    -5.089000000     0.932000000
H    -4.953000000    -5.461000000     1.464000000
