201
-1231.32586
C    -2.313000000     2.927000000     3.454000000
H    -2.392000000     3.752000000     2.751000000
C    -1.107000000     2.287000000     3.833000000
C    -1.143000000     1.243000000     4.747000000
H    -0.229000000     0.673000000     4.894000000
C     0.212000000     2.817000000     3.231000000
O     0.294000000     4.230000000     3.025000000
H     0.488000000     2.293000000     2.304000000
O     1.337000000     2.487000000     4.030000000
C     2.379000000     1.856000000     3.355000000
C     2.507000000     0.488000000     3.502000000
H     1.798000000     0.013000000     4.176000000
C     3.445000000    -0.231000000     2.750000000
O     3.371000000    -1.589000000     2.872000000
C     4.324000000     0.474000000     1.928000000
C     5.438000000    -0.178000000     1.172000000
H     6.283000000     0.493000000     1.005000000
C     4.878000000    -0.851000000    -0.037000000
C     4.828000000    -0.132000000    -1.272000000
H     5.201000000     0.889000000    -1.239000000
H     5.943000000    -0.923000000     1.790000000
C     4.259000000     1.874000000     1.875000000
H     4.957000000     2.480000000     1.303000000
C     3.322000000     2.613000000     2.640000000
C     3.174000000     4.099000000     2.556000000
H     4.135000000     4.518000000     2.250000000
H     2.985000000     4.547000000     3.534000000
C     2.155000000     4.509000000     1.543000000
C     2.489000000     4.562000000     0.219000000
H     3.552000000     4.440000000     0.026000000
C     0.811000000     4.699000000     1.836000000
C    -0.181000000     4.862000000     0.843000000
H    -1.230000000     4.873000000     1.127000000
C     0.220000000     4.953000000    -0.497000000
O    -0.761000000     4.773000000    -1.445000000
C    -1.092000000     3.434000000    -1.894000000
C    -2.586000000     3.078000000    -1.958000000
C    -3.091000000     1.962000000    -2.603000000
H    -2.373000000     1.258000000    -3.013000000
C    -3.517000000     3.904000000    -1.325000000
H    -3.224000000     4.913000000    -1.047000000
O    -0.512000000     3.255000000    -3.252000000
H    -0.680000000     2.716000000    -1.168000000
C     1.566000000     4.640000000    -0.824000000
C     2.073000000     4.489000000    -2.257000000
H     3.064000000     4.943000000    -2.311000000
H     1.518000000     5.227000000    -2.840000000
C     1.950000000     3.073000000    -2.850000000
C     3.118000000     2.318000000    -3.048000000
H     4.102000000     2.571000000    -2.661000000
C     0.729000000     2.514000000    -3.360000000
C     0.671000000     1.301000000    -4.002000000
H    -0.302000000     0.903000000    -4.278000000
C     1.849000000     0.595000000    -4.136000000
O     1.716000000    -0.735000000    -4.492000000
C     1.606000000    -1.830000000    -3.565000000
C     0.615000000    -2.819000000    -3.986000000
C    -0.529000000    -2.370000000    -4.681000000
H    -0.556000000    -1.335000000    -5.013000000
C     0.642000000    -4.196000000    -3.593000000
H     1.481000000    -4.675000000    -3.095000000
O     2.922000000    -2.405000000    -3.321000000
H     1.202000000    -1.353000000    -2.660000000
C     3.067000000     1.094000000    -3.676000000
C     4.299000000     0.237000000    -3.703000000
H     5.200000000     0.843000000    -3.592000000
H     4.304000000    -0.421000000    -4.575000000
C     4.283000000    -0.654000000    -2.428000000
C     3.759000000    -1.910000000    -2.380000000
C     3.916000000    -2.740000000    -1.302000000
H     3.425000000    -3.706000000    -1.214000000
C     4.398000000    -2.179000000    -0.140000000
O     4.145000000    -2.844000000     0.981000000
C     2.966000000    -2.451000000     1.733000000
H     2.373000000    -1.830000000     1.046000000
C     2.191000000    -3.689000000     2.243000000
C     1.370000000    -3.502000000     3.321000000
H     1.395000000    -2.546000000     3.837000000
C     1.957000000    -4.800000000     1.408000000
H     2.373000000    -4.846000000     0.405000000
C     1.031000000    -5.750000000     1.832000000
O     0.791000000    -6.885000000     1.147000000
C     0.306000000    -5.626000000     3.043000000
H    -0.409000000    -6.365000000     3.396000000
C     0.484000000    -4.465000000     3.778000000
O    -0.282000000    -4.316000000     4.926000000
C    -0.342000000    -3.205000000     5.704000000
C    -1.396000000    -2.285000000     5.525000000
H    -2.122000000    -2.566000000     4.767000000
C     0.596000000    -2.998000000     6.681000000
H     1.400000000    -3.727000000     6.745000000
C     0.473000000    -1.944000000     7.580000000
H     1.235000000    -1.808000000     8.343000000
C    -0.594000000    -1.014000000     7.467000000
H    -0.657000000    -0.212000000     8.198000000
C    -1.473000000    -1.130000000     6.372000000
O    -2.460000000    -0.254000000     6.224000000
C    -2.337000000     0.822000000     5.335000000
C    -3.483000000     1.528000000     4.985000000
H    -4.457000000     1.125000000     5.252000000
C    -3.501000000     2.553000000     4.070000000
O    -4.718000000     3.136000000     3.692000000
C    -4.936000000     4.145000000     2.789000000
C    -5.086000000     3.834000000     1.439000000
H    -4.878000000     2.804000000     1.160000000
C    -5.457000000     5.394000000     3.228000000
H    -5.497000000     5.511000000     4.308000000
C    -5.820000000     6.373000000     2.322000000
H    -6.115000000     7.384000000     2.591000000
C    -6.000000000     6.066000000     1.013000000
H    -6.439000000     6.841000000     0.389000000
C    -5.629000000     4.734000000     0.602000000
O    -5.770000000     4.490000000    -0.723000000
C    -4.860000000     3.648000000    -1.343000000
C    -5.357000000     2.422000000    -1.879000000
H    -6.395000000     2.161000000    -2.068000000
C    -4.482000000     1.613000000    -2.592000000
O    -4.993000000     0.627000000    -3.323000000
C    -4.399000000     0.116000000    -4.475000000
C    -3.665000000    -1.036000000    -4.452000000
H    -3.335000000    -1.380000000    -3.474000000
C    -4.596000000     0.774000000    -5.678000000
H    -5.037000000     1.768000000    -5.659000000
C    -4.182000000     0.243000000    -6.912000000
H    -4.457000000     0.760000000    -7.828000000
C    -3.524000000    -0.977000000    -6.912000000
H    -3.139000000    -1.463000000    -7.804000000
C    -3.293000000    -1.672000000    -5.662000000
O    -2.727000000    -2.859000000    -5.715000000
C    -1.639000000    -3.181000000    -4.931000000
C    -1.563000000    -4.529000000    -4.499000000
H    -2.276000000    -5.326000000    -4.691000000
C    -0.449000000    -4.943000000    -3.739000000
O    -0.507000000    -6.215000000    -3.363000000
C     0.341000000    -6.841000000    -2.450000000
C     1.551000000    -7.426000000    -2.876000000
H     1.793000000    -7.343000000    -3.932000000
C     2.550000000    -7.768000000    -1.934000000
H     3.466000000    -8.227000000    -2.298000000
C     2.240000000    -7.560000000    -0.629000000
H     3.006000000    -7.931000000     0.046000000
C     1.046000000    -7.033000000    -0.152000000
C     0.084000000    -6.648000000    -1.068000000
H    -0.855000000    -6.203000000    -0.749000000
O    -9.461000000     1.569000000     2.002000000
H    -9.044000000     2.429000000     2.047000000
H    -8.829000000     1.022000000     1.533000000
O    -8.944000000    -5.542000000    -2.168000000
H    -8.303000000    -5.341000000    -1.486000000
H    -8.703000000    -4.972000000    -2.898000000
O    -8.767000000    -2.399000000    -1.063000000
H    -8.885000000    -2.773000000    -1.937000000
H    -8.023000000    -2.877000000    -0.697000000
O    -7.854000000    -0.077000000     0.325000000
H    -7.171000000    -0.684000000     0.610000000
H    -8.587000000    -0.640000000     0.077000000
O    -5.452000000    -0.781000000     2.833000000
H    -5.455000000    -1.213000000     1.980000000
H    -5.693000000     0.126000000     2.644000000
O    -8.686000000     2.233000000    -1.039000000
H    -9.624000000     2.101000000    -0.896000000
H    -8.273000000     1.475000000    -0.625000000
O    -3.348000000    -5.917000000     2.147000000
H    -3.293000000    -5.657000000     1.228000000
H    -3.303000000    -5.093000000     2.632000000
O    -7.810000000    -3.498000000    -3.692000000
H    -7.652000000    -2.728000000    -4.239000000
H    -6.990000000    -3.990000000    -3.730000000
O    -7.190000000    -4.695000000    -0.332000000
H    -6.585000000    -3.972000000    -0.499000000
H    -6.806000000    -5.161000000     0.411000000
O    -6.261000000    -1.983000000     5.002000000
H    -6.586000000    -2.832000000     4.702000000
H    -5.861000000    -1.592000000     4.225000000
O    -4.293000000    -6.917000000    -3.141000000
H    -3.562000000    -7.532000000    -3.092000000
H    -4.951000000    -7.280000000    -2.547000000
O    -7.658000000    -0.038000000    -2.871000000
H    -6.734000000     0.193000000    -2.777000000
H    -7.826000000    -0.651000000    -2.155000000
O    -5.203000000    -4.402000000    -3.589000000
H    -4.792000000    -5.201000000    -3.259000000
H    -5.013000000    -3.742000000    -2.922000000
O    -5.926000000    -5.176000000    -5.832000000
H    -5.812000000    -4.625000000    -5.058000000
H    -5.412000000    -5.961000000    -5.645000000
O    -4.488000000    -3.564000000     3.315000000
H    -5.344000000    -3.990000000     3.252000000
H    -4.623000000    -2.697000000     2.933000000
O    -7.195000000    -4.228000000     3.688000000
H    -7.575000000    -3.879000000     2.882000000
H    -7.831000000    -4.875000000     3.992000000
O    -7.611000000    -1.392000000    -5.282000000
H    -7.628000000    -1.122000000    -6.200000000
H    -7.705000000    -0.577000000    -4.789000000
O    -6.073000000    -5.984000000     1.925000000
H    -6.385000000    -5.375000000     2.594000000
H    -5.130000000    -6.046000000     2.078000000
O    -3.906000000    -5.558000000    -0.532000000
H    -4.359000000    -4.753000000    -0.782000000
H    -4.521000000    -6.257000000    -0.755000000
