201
-1260.44057
C    -1.433000000     2.174000000     3.845000000
H    -1.631000000     3.003000000     3.170000000
C    -0.125000000     1.757000000     4.006000000
C     0.207000000     0.676000000     4.858000000
H     1.239000000     0.381000000     5.031000000
C     0.920000000     2.216000000     3.013000000
O     0.762000000     3.646000000     2.792000000
H     0.720000000     1.655000000     2.088000000
O     2.219000000     2.019000000     3.473000000
C     3.177000000     1.495000000     2.639000000
C     3.287000000     0.086000000     2.675000000
H     2.861000000    -0.511000000     3.477000000
C     4.128000000    -0.520000000     1.797000000
O     4.208000000    -1.875000000     1.826000000
C     4.849000000     0.242000000     0.817000000
C     5.691000000    -0.516000000    -0.222000000
H     6.524000000     0.098000000    -0.570000000
C     4.786000000    -0.935000000    -1.438000000
C     4.550000000    -0.087000000    -2.506000000
H     5.136000000     0.819000000    -2.641000000
H     6.180000000    -1.446000000     0.074000000
C     4.625000000     1.574000000     0.669000000
H     5.062000000     2.047000000    -0.206000000
C     3.756000000     2.203000000     1.539000000
C     3.574000000     3.712000000     1.529000000
H     4.383000000     4.171000000     0.957000000
H     3.636000000     4.139000000     2.532000000
C     2.211000000     4.131000000     0.904000000
C     2.304000000     4.463000000    -0.471000000
H     3.239000000     4.279000000    -0.994000000
C     0.987000000     4.143000000     1.497000000
C    -0.134000000     4.691000000     0.852000000
H    -1.116000000     4.559000000     1.299000000
C    -0.006000000     5.018000000    -0.501000000
O    -1.128000000     5.141000000    -1.236000000
C    -1.693000000     3.929000000    -1.911000000
C    -3.154000000     3.854000000    -1.726000000
C    -3.971000000     3.294000000    -2.715000000
H    -3.586000000     2.879000000    -3.644000000
C    -3.745000000     4.183000000    -0.527000000
H    -3.149000000     4.556000000     0.303000000
O    -1.354000000     3.955000000    -3.301000000
H    -1.199000000     3.048000000    -1.476000000
C     1.211000000     4.974000000    -1.202000000
C     1.326000000     4.989000000    -2.731000000
H     2.306000000     5.380000000    -3.015000000
H     0.604000000     5.644000000    -3.223000000
C     1.078000000     3.610000000    -3.338000000
C     2.198000000     2.800000000    -3.619000000
H     3.228000000     3.086000000    -3.421000000
C    -0.253000000     3.234000000    -3.705000000
C    -0.484000000     1.957000000    -4.138000000
H    -1.512000000     1.692000000    -4.375000000
C     0.580000000     1.100000000    -4.350000000
O     0.330000000    -0.133000000    -4.808000000
C     0.540000000    -1.211000000    -3.866000000
C    -0.670000000    -2.146000000    -3.607000000
C    -2.012000000    -1.664000000    -3.467000000
H    -2.246000000    -0.621000000    -3.663000000
C    -0.511000000    -3.572000000    -3.509000000
H     0.440000000    -4.086000000    -3.625000000
O     1.789000000    -1.909000000    -4.120000000
H     0.623000000    -0.688000000    -2.902000000
C     1.962000000     1.484000000    -4.126000000
C     3.163000000     0.599000000    -4.501000000
H     4.061000000     1.190000000    -4.695000000
H     2.752000000     0.179000000    -5.421000000
C     3.564000000    -0.434000000    -3.462000000
C     2.865000000    -1.593000000    -3.275000000
C     3.127000000    -2.467000000    -2.255000000
H     2.590000000    -3.409000000    -2.170000000
C     4.079000000    -2.144000000    -1.340000000
O     4.106000000    -2.980000000    -0.260000000
C     3.347000000    -2.574000000     0.908000000
H     2.519000000    -1.899000000     0.644000000
C     2.808000000    -3.833000000     1.599000000
C     2.799000000    -3.862000000     2.998000000
H     3.192000000    -3.062000000     3.621000000
C     2.233000000    -4.899000000     0.892000000
H     2.023000000    -4.828000000    -0.172000000
C     1.583000000    -5.893000000     1.572000000
O     0.873000000    -6.836000000     0.880000000
C     1.577000000    -5.869000000     2.972000000
H     1.043000000    -6.670000000     3.476000000
C     2.155000000    -4.833000000     3.683000000
O     2.078000000    -4.830000000     5.046000000
C     1.898000000    -3.715000000     5.836000000
C     0.797000000    -2.891000000     5.719000000
H    -0.070000000    -3.219000000     5.151000000
C     2.849000000    -3.383000000     6.791000000
H     3.716000000    -4.034000000     6.860000000
C     2.718000000    -2.316000000     7.639000000
H     3.473000000    -2.046000000     8.374000000
C     1.568000000    -1.472000000     7.514000000
H     1.460000000    -0.598000000     8.152000000
C     0.594000000    -1.802000000     6.608000000
O    -0.511000000    -1.025000000     6.564000000
C    -0.774000000     0.065000000     5.643000000
C    -2.111000000     0.476000000     5.440000000
H    -2.954000000     0.051000000     5.979000000
C    -2.404000000     1.494000000     4.554000000
O    -3.723000000     1.875000000     4.488000000
C    -4.184000000     3.058000000     3.944000000
C    -4.679000000     3.056000000     2.668000000
H    -4.562000000     2.117000000     2.133000000
C    -4.285000000     4.194000000     4.777000000
H    -3.991000000     4.224000000     5.822000000
C    -4.682000000     5.420000000     4.192000000
H    -4.753000000     6.425000000     4.600000000
C    -5.159000000     5.428000000     2.872000000
H    -5.587000000     6.344000000     2.473000000
C    -5.145000000     4.268000000     2.102000000
O    -5.691000000     4.431000000     0.861000000
C    -5.125000000     4.098000000    -0.316000000
C    -5.909000000     3.474000000    -1.253000000
H    -6.977000000     3.283000000    -1.195000000
C    -5.333000000     3.062000000    -2.460000000
O    -6.047000000     2.336000000    -3.415000000
C    -5.508000000     1.233000000    -4.035000000
C    -5.259000000     0.091000000    -3.274000000
H    -5.513000000     0.193000000    -2.222000000
C    -5.341000000     1.216000000    -5.433000000
H    -5.628000000     2.061000000    -6.053000000
C    -4.841000000     0.087000000    -6.089000000
H    -4.563000000     0.172000000    -7.136000000
C    -4.465000000    -0.984000000    -5.298000000
H    -3.952000000    -1.839000000    -5.732000000
C    -4.757000000    -1.049000000    -3.920000000
O    -4.407000000    -2.033000000    -3.087000000
C    -3.122000000    -2.505000000    -3.169000000
C    -2.931000000    -3.814000000    -2.998000000
H    -3.730000000    -4.497000000    -2.720000000
C    -1.628000000    -4.341000000    -3.078000000
O    -1.589000000    -5.696000000    -3.051000000
C    -0.641000000    -6.433000000    -2.418000000
C     0.172000000    -7.327000000    -3.180000000
H    -0.068000000    -7.482000000    -4.229000000
C     1.283000000    -7.844000000    -2.575000000
H     1.891000000    -8.521000000    -3.168000000
C     1.580000000    -7.672000000    -1.219000000
H     2.334000000    -8.223000000    -0.663000000
C     0.738000000    -6.901000000    -0.434000000
C    -0.327000000    -6.264000000    -1.012000000
H    -1.031000000    -5.664000000    -0.440000000
O    -8.177000000     0.070000000    -1.460000000
H    -9.027000000     0.502000000    -1.539000000
H    -8.170000000    -0.577000000    -2.165000000
O    -2.718000000    -3.168000000     5.442000000
H    -2.095000000    -2.541000000     5.075000000
H    -3.471000000    -3.130000000     4.853000000
O    -6.263000000     0.715000000     3.748000000
H    -6.203000000     0.906000000     2.812000000
H    -5.402000000     0.947000000     4.096000000
O    -2.575000000    -6.566000000     4.208000000
H    -3.334000000    -6.019000000     4.003000000
H    -2.589000000    -7.253000000     3.541000000
O    -7.758000000    -1.563000000     0.556000000
H    -6.802000000    -1.557000000     0.593000000
H    -7.973000000    -0.981000000    -0.173000000
O    -3.659000000    -5.981000000    -0.018000000
H    -4.463000000    -6.207000000    -0.486000000
H    -3.642000000    -5.024000000    -0.021000000
O    -6.049000000    -4.786000000     1.218000000
H    -5.203000000    -4.383000000     1.022000000
H    -6.691000000    -4.210000000     0.804000000
O    -5.834000000    -6.241000000    -1.976000000
H    -5.475000000    -6.739000000    -2.710000000
H    -6.455000000    -6.840000000    -1.561000000
O    -7.220000000    -3.852000000    -4.931000000
H    -6.548000000    -4.275000000    -5.466000000
H    -6.825000000    -3.780000000    -4.063000000
O    -5.224000000    -4.825000000     3.726000000
H    -5.027000000    -3.888000000     3.743000000
H    -5.558000000    -4.984000000     2.843000000
O    -9.275000000    -4.373000000    -1.344000000
H    -9.375000000    -4.833000000    -2.177000000
H    -8.514000000    -3.806000000    -1.472000000
O    -4.646000000    -2.167000000     3.429000000
H    -5.522000000    -1.784000000     3.485000000
H    -4.366000000    -1.992000000     2.530000000
O    -6.048000000     0.867000000     0.715000000
H    -5.449000000     0.139000000     0.550000000
H    -6.725000000     0.777000000     0.045000000
O    -6.422000000    -3.744000000    -2.360000000
H    -6.164000000    -4.622000000    -2.081000000
H    -5.610000000    -3.237000000    -2.335000000
O    -7.955000000    -1.523000000     3.762000000
H    -7.446000000    -0.725000000     3.904000000
H    -7.968000000    -1.633000000     2.811000000
O    -0.855000000    -1.742000000     2.993000000
H    -0.816000000    -1.391000000     2.103000000
H    -1.590000000    -2.354000000     2.976000000
O   -10.184000000    -2.109000000     0.073000000
H    -9.364000000    -2.176000000     0.562000000
H   -10.115000000    -2.781000000    -0.605000000
O    -3.068000000    -7.940000000     1.764000000
H    -3.861000000    -8.441000000     1.570000000
H    -3.028000000    -7.279000000     1.073000000
O    -2.355000000    -4.051000000     2.726000000
H    -2.842000000    -4.407000000     1.982000000
H    -1.958000000    -4.816000000     3.141000000
