201
-1252.77961
C    -2.361000000     0.923000000     4.585000000
H    -2.577000000     1.830000000     4.026000000
C    -1.073000000     0.437000000     4.785000000
C    -0.884000000    -0.775000000     5.379000000
H     0.039000000    -1.340000000     5.274000000
C     0.129000000     1.138000000     4.149000000
O     0.030000000     2.547000000     4.306000000
H     0.131000000     0.916000000     3.072000000
O     1.359000000     0.831000000     4.806000000
C     2.495000000     0.585000000     3.999000000
C     2.818000000    -0.738000000     3.650000000
H     2.228000000    -1.565000000     4.037000000
C     3.776000000    -0.977000000     2.643000000
O     3.793000000    -2.302000000     2.232000000
C     4.406000000     0.052000000     1.966000000
C     5.461000000    -0.130000000     0.863000000
H     6.035000000     0.776000000     0.661000000
C     4.761000000    -0.292000000    -0.544000000
C     4.762000000     0.798000000    -1.488000000
H     5.248000000     1.723000000    -1.189000000
H     6.213000000    -0.902000000     1.040000000
C     4.089000000     1.381000000     2.355000000
H     4.565000000     2.210000000     1.837000000
C     3.139000000     1.650000000     3.345000000
C     2.792000000     3.030000000     3.809000000
H     3.676000000     3.665000000     3.724000000
H     2.375000000     3.060000000     4.817000000
C     1.688000000     3.539000000     2.843000000
C     2.017000000     4.120000000     1.576000000
H     3.019000000     4.368000000     1.234000000
C     0.326000000     3.349000000     3.221000000
C    -0.652000000     3.815000000     2.379000000
H    -1.684000000     3.605000000     2.651000000
C    -0.365000000     4.348000000     1.100000000
O    -1.460000000     4.540000000     0.304000000
C    -1.586000000     3.730000000    -0.920000000
C    -3.014000000     3.439000000    -1.173000000
C    -3.507000000     3.376000000    -2.463000000
H    -2.727000000     3.427000000    -3.219000000
C    -3.838000000     3.106000000    -0.131000000
H    -3.460000000     3.162000000     0.886000000
O    -0.984000000     4.426000000    -2.050000000
H    -0.995000000     2.817000000    -0.756000000
C     0.968000000     4.497000000     0.721000000
C     1.322000000     5.188000000    -0.581000000
H     2.360000000     5.523000000    -0.527000000
H     0.733000000     6.102000000    -0.686000000
C     1.327000000     4.245000000    -1.713000000
C     2.555000000     3.604000000    -2.170000000
H     3.475000000     3.767000000    -1.615000000
C     0.212000000     3.992000000    -2.420000000
C     0.249000000     3.170000000    -3.534000000
H    -0.722000000     2.909000000    -3.946000000
C     1.415000000     2.388000000    -3.864000000
O     1.283000000     1.321000000    -4.664000000
C     1.288000000     0.067000000    -3.916000000
C     0.236000000    -0.862000000    -4.420000000
C    -0.911000000    -0.388000000    -4.987000000
H    -1.114000000     0.672000000    -4.857000000
C     0.292000000    -2.233000000    -4.242000000
H     1.198000000    -2.616000000    -3.779000000
O     2.582000000    -0.544000000    -4.030000000
H     1.079000000     0.277000000    -2.856000000
C     2.598000000     2.651000000    -3.226000000
C     3.929000000     1.888000000    -3.610000000
H     4.710000000     2.612000000    -3.370000000
H     4.081000000     1.634000000    -4.661000000
C     4.129000000     0.681000000    -2.706000000
C     3.486000000    -0.515000000    -2.996000000
C     3.548000000    -1.638000000    -2.193000000
H     3.110000000    -2.571000000    -2.538000000
C     4.149000000    -1.506000000    -0.951000000
O     4.139000000    -2.616000000    -0.093000000
C     3.214000000    -2.715000000     1.005000000
H     2.411000000    -1.999000000     0.774000000
C     2.593000000    -4.075000000     1.158000000
C     1.916000000    -4.356000000     2.297000000
H     2.053000000    -3.763000000     3.198000000
C     2.410000000    -4.838000000    -0.016000000
H     2.852000000    -4.573000000    -0.973000000
C     1.571000000    -5.963000000     0.028000000
O     1.266000000    -6.758000000    -1.057000000
C     0.983000000    -6.376000000     1.245000000
H     0.342000000    -7.246000000     1.363000000
C     1.115000000    -5.541000000     2.396000000
O     0.353000000    -5.968000000     3.542000000
C     0.322000000    -5.191000000     4.646000000
C    -0.711000000    -4.266000000     4.828000000
H    -1.520000000    -4.097000000     4.122000000
C     1.360000000    -5.388000000     5.527000000
H     2.134000000    -6.126000000     5.333000000
C     1.441000000    -4.642000000     6.720000000
H     2.115000000    -4.895000000     7.534000000
C     0.397000000    -3.759000000     6.958000000
H     0.251000000    -3.268000000     7.917000000
C    -0.620000000    -3.482000000     6.000000000
O    -1.731000000    -2.761000000     6.355000000
C    -1.952000000    -1.543000000     5.778000000
C    -3.282000000    -1.051000000     5.684000000
H    -4.128000000    -1.699000000     5.899000000
C    -3.473000000     0.236000000     5.144000000
O    -4.750000000     0.729000000     5.102000000
C    -4.958000000     1.832000000     4.241000000
C    -5.406000000     1.713000000     2.954000000
H    -5.423000000     0.715000000     2.525000000
C    -4.758000000     3.120000000     4.720000000
H    -4.247000000     3.246000000     5.671000000
C    -4.927000000     4.191000000     3.880000000
H    -4.771000000     5.187000000     4.286000000
C    -5.470000000     4.128000000     2.570000000
H    -5.527000000     4.991000000     1.912000000
C    -5.732000000     2.861000000     2.159000000
O    -6.051000000     2.739000000     0.822000000
C    -5.226000000     3.028000000    -0.283000000
C    -5.724000000     2.963000000    -1.565000000
H    -6.797000000     2.864000000    -1.711000000
C    -4.826000000     3.051000000    -2.640000000
O    -5.351000000     2.909000000    -3.924000000
C    -4.693000000     2.349000000    -4.988000000
C    -4.233000000     1.033000000    -4.975000000
H    -4.358000000     0.368000000    -4.124000000
C    -4.579000000     3.070000000    -6.171000000
H    -5.091000000     4.019000000    -6.313000000
C    -4.061000000     2.475000000    -7.320000000
H    -4.071000000     3.004000000    -8.269000000
C    -3.514000000     1.202000000    -7.227000000
H    -2.872000000     0.803000000    -8.008000000
C    -3.535000000     0.473000000    -6.042000000
O    -3.127000000    -0.823000000    -6.050000000
C    -1.917000000    -1.250000000    -5.563000000
C    -1.692000000    -2.601000000    -5.613000000
H    -2.410000000    -3.247000000    -6.112000000
C    -0.571000000    -3.068000000    -4.915000000
O    -0.472000000    -4.387000000    -4.854000000
C     0.611000000    -5.042000000    -4.266000000
C     1.928000000    -5.060000000    -4.807000000
H     2.196000000    -4.592000000    -5.751000000
C     2.927000000    -5.785000000    -4.176000000
H     3.920000000    -5.839000000    -4.614000000
C     2.817000000    -6.271000000    -2.884000000
H     3.653000000    -6.828000000    -2.468000000
C     1.503000000    -6.269000000    -2.321000000
C     0.487000000    -5.621000000    -2.990000000
H    -0.444000000    -5.629000000    -2.429000000
O    -5.283000000    -6.521000000    -2.354000000
H    -5.379000000    -6.265000000    -1.437000000
H    -6.048000000    -7.069000000    -2.531000000
O    -5.270000000    -9.146000000     0.679000000
H    -4.932000000    -9.379000000    -0.185000000
H    -4.492000000    -9.086000000     1.233000000
O    -2.088000000    -8.802000000    -1.465000000
H    -2.936000000    -9.047000000    -1.836000000
H    -2.219000000    -7.912000000    -1.135000000
O    -5.579000000    -5.676000000     0.312000000
H    -4.770000000    -5.242000000     0.583000000
H    -6.203000000    -4.961000000     0.185000000
O    -4.168000000    -4.513000000     5.941000000
H    -4.864000000    -4.331000000     6.572000000
H    -3.358000000    -4.354000000     6.425000000
O    -2.727000000    -6.291000000    -0.993000000
H    -3.085000000    -5.835000000    -1.755000000
H    -2.579000000    -5.599000000    -0.348000000
O    -6.794000000    -6.437000000     3.285000000
H    -6.464000000    -6.249000000     2.406000000
H    -6.325000000    -5.826000000     3.853000000
O    -6.030000000    -1.484000000    -3.151000000
H    -6.031000000    -2.441000000    -3.182000000
H    -5.830000000    -1.216000000    -4.048000000
O    -6.603000000    -4.275000000    -3.362000000
H    -5.816000000    -4.813000000    -3.274000000
H    -7.064000000    -4.644000000    -4.115000000
O    -7.188000000    -0.306000000    -1.149000000
H    -6.648000000    -0.817000000    -0.546000000
H    -6.725000000    -0.356000000    -1.986000000
O    -2.756000000    -7.741000000     5.594000000
H    -2.839000000    -6.801000000     5.437000000
H    -3.616000000    -8.098000000     5.373000000
O    -7.544000000    -7.759000000     0.141000000
H    -7.269000000    -8.673000000     0.208000000
H    -6.728000000    -7.260000000     0.181000000
O    -8.391000000    -3.531000000    -1.428000000
H    -7.617000000    -3.839000000    -1.900000000
H    -8.121000000    -2.696000000    -1.045000000
O    -6.359000000    -2.643000000     1.005000000
H    -5.513000000    -2.887000000     1.381000000
H    -6.966000000    -2.670000000     1.745000000
O    -3.515000000    -5.690000000     3.097000000
H    -3.508000000    -4.938000000     3.689000000
H    -3.521000000    -5.305000000     2.221000000
O    -3.067000000    -8.924000000     2.238000000
H    -2.901000000    -7.984000000     2.312000000
H    -2.582000000    -9.311000000     2.966000000
O    -5.483000000    -8.396000000     5.057000000
H    -5.728000000    -7.971000000     5.879000000
H    -6.080000000    -8.023000000     4.408000000
O    -8.503000000    -2.624000000     3.149000000
H    -8.906000000    -2.483000000     4.006000000
H    -7.671000000    -3.056000000     3.345000000
O    -5.896000000    -3.864000000     3.829000000
H    -5.364000000    -4.073000000     4.597000000
H    -5.283000000    -3.458000000     3.216000000
