201
-1237.87519
C    -3.223000000    -0.034000000     4.137000000
H    -3.639000000     0.955000000     3.963000000
C    -1.870000000    -0.368000000     4.381000000
C    -1.592000000    -1.732000000     4.723000000
H    -0.567000000    -2.027000000     4.932000000
C    -0.727000000     0.649000000     4.266000000
O    -1.274000000     1.968000000     4.489000000
H    -0.501000000     0.602000000     3.190000000
O     0.454000000     0.264000000     4.930000000
C     1.630000000     0.492000000     4.297000000
C     2.280000000    -0.672000000     3.932000000
H     1.857000000    -1.654000000     4.126000000
C     3.328000000    -0.557000000     3.005000000
O     3.747000000    -1.697000000     2.357000000
C     3.874000000     0.696000000     2.633000000
C     5.114000000     0.849000000     1.818000000
H     5.633000000     1.717000000     2.229000000
C     4.886000000     0.824000000     0.385000000
C     4.703000000     2.038000000    -0.220000000
H     4.836000000     2.966000000     0.329000000
H     5.735000000     0.005000000     2.124000000
C     3.248000000     1.811000000     3.053000000
H     3.623000000     2.786000000     2.753000000
C     2.165000000     1.758000000     3.891000000
C     1.465000000     3.044000000     4.293000000
H     2.170000000     3.876000000     4.363000000
H     1.073000000     2.975000000     5.310000000
C     0.381000000     3.400000000     3.362000000
C     0.620000000     4.183000000     2.234000000
H     1.598000000     4.632000000     2.081000000
C    -0.925000000     2.873000000     3.520000000
C    -1.985000000     3.171000000     2.661000000
H    -2.949000000     2.752000000     2.936000000
C    -1.758000000     4.048000000     1.598000000
O    -2.684000000     4.149000000     0.548000000
C    -2.457000000     3.402000000    -0.642000000
C    -3.756000000     2.744000000    -1.176000000
C    -3.798000000     1.977000000    -2.387000000
H    -2.936000000     2.006000000    -3.049000000
C    -4.850000000     2.686000000    -0.331000000
H    -4.842000000     3.209000000     0.622000000
O    -1.859000000     4.269000000    -1.640000000
H    -1.775000000     2.618000000    -0.279000000
C    -0.437000000     4.521000000     1.346000000
C    -0.147000000     5.494000000     0.268000000
H     0.662000000     6.168000000     0.558000000
H    -1.049000000     6.072000000     0.054000000
C     0.352000000     4.688000000    -0.893000000
C     1.730000000     4.487000000    -0.992000000
H     2.378000000     4.889000000    -0.217000000
C    -0.510000000     4.131000000    -1.816000000
C    -0.023000000     3.422000000    -2.904000000
H    -0.663000000     3.132000000    -3.734000000
C     1.356000000     3.249000000    -3.006000000
O     1.800000000     2.469000000    -4.061000000
C     2.114000000     1.037000000    -3.830000000
C     1.588000000    -0.040000000    -4.787000000
C     0.258000000    -0.061000000    -5.157000000
H    -0.364000000     0.755000000    -4.797000000
C     2.476000000    -1.111000000    -5.057000000
H     3.552000000    -1.148000000    -4.907000000
O     3.540000000     0.945000000    -3.525000000
H     1.590000000     0.751000000    -2.906000000
C     2.223000000     3.743000000    -1.987000000
C     3.722000000     3.485000000    -2.097000000
H     4.258000000     4.296000000    -1.600000000
H     4.151000000     3.591000000    -3.096000000
C     4.212000000     2.115000000    -1.534000000
C     3.922000000     0.977000000    -2.228000000
C     4.224000000    -0.261000000    -1.649000000
H     4.009000000    -1.116000000    -2.284000000
C     4.604000000    -0.371000000    -0.338000000
O     4.783000000    -1.586000000     0.245000000
C     3.606000000    -2.036000000     0.968000000
H     2.795000000    -1.410000000     0.569000000
C     3.049000000    -3.475000000     0.797000000
C     2.345000000    -4.129000000     1.817000000
H     2.375000000    -3.781000000     2.847000000
C     3.135000000    -4.034000000    -0.445000000
H     3.623000000    -3.520000000    -1.268000000
C     2.436000000    -5.192000000    -0.758000000
O     2.531000000    -5.838000000    -1.996000000
C     1.639000000    -5.819000000     0.217000000
H     1.042000000    -6.685000000    -0.057000000
C     1.625000000    -5.302000000     1.507000000
O     0.971000000    -6.032000000     2.452000000
C     0.601000000    -5.534000000     3.672000000
C    -0.650000000    -5.050000000     3.901000000
H    -1.312000000    -5.168000000     3.047000000
C     1.507000000    -5.554000000     4.709000000
H     2.453000000    -6.065000000     4.544000000
C     1.202000000    -4.946000000     5.986000000
H     1.979000000    -4.933000000     6.746000000
C    -0.067000000    -4.421000000     6.152000000
H    -0.350000000    -4.052000000     7.134000000
C    -0.987000000    -4.468000000     5.114000000
O    -2.275000000    -4.002000000     5.332000000
C    -2.579000000    -2.643000000     4.916000000
C    -3.862000000    -2.296000000     4.562000000
H    -4.667000000    -3.024000000     4.622000000
C    -4.195000000    -1.029000000     4.186000000
O    -5.549000000    -0.758000000     4.010000000
C    -5.968000000     0.463000000     3.549000000
C    -6.208000000     0.706000000     2.151000000
H    -5.983000000    -0.051000000     1.405000000
C    -6.397000000     1.486000000     4.409000000
H    -6.313000000     1.320000000     5.480000000
C    -6.934000000     2.697000000     3.987000000
H    -7.231000000     3.483000000     4.676000000
C    -7.118000000     2.900000000     2.583000000
H    -7.487000000     3.879000000     2.287000000
C    -6.778000000     1.866000000     1.661000000
O    -7.020000000     2.156000000     0.303000000
C    -6.013000000     2.030000000    -0.622000000
C    -6.097000000     1.434000000    -1.927000000
H    -6.966000000     0.913000000    -2.320000000
C    -4.966000000     1.400000000    -2.795000000
O    -5.034000000     0.704000000    -3.967000000
C    -4.159000000     0.865000000    -5.053000000
C    -3.330000000    -0.231000000    -5.404000000
H    -3.388000000    -1.165000000    -4.851000000
C    -3.904000000     2.151000000    -5.556000000
H    -4.512000000     3.000000000    -5.255000000
C    -2.860000000     2.303000000    -6.507000000
H    -2.599000000     3.328000000    -6.757000000
C    -2.095000000     1.213000000    -6.801000000
H    -1.261000000     1.345000000    -7.486000000
C    -2.350000000    -0.096000000    -6.331000000
O    -1.461000000    -1.107000000    -6.589000000
C    -0.188000000    -1.049000000    -6.067000000
C     0.647000000    -2.152000000    -6.288000000
H     0.353000000    -3.030000000    -6.857000000
C     1.969000000    -2.167000000    -5.771000000
O     2.775000000    -3.255000000    -6.053000000
C     3.289000000    -4.060000000    -5.080000000
C     4.642000000    -4.245000000    -5.157000000
H     5.115000000    -3.655000000    -5.938000000
C     5.320000000    -5.048000000    -4.242000000
H     6.383000000    -5.271000000    -4.211000000
C     4.596000000    -5.670000000    -3.209000000
H     5.112000000    -6.296000000    -2.487000000
C     3.222000000    -5.389000000    -3.081000000
C     2.566000000    -4.578000000    -4.023000000
H     1.515000000    -4.317000000    -3.925000000
O    -5.198000000    -2.362000000     0.141000000
H    -5.402000000    -3.284000000     0.298000000
H    -4.398000000    -2.379000000    -0.384000000
O    -1.796000000    -3.228000000    -4.278000000
H    -1.459000000    -3.022000000    -3.406000000
H    -2.021000000    -4.158000000    -4.233000000
O    -1.382000000   -10.551000000     0.895000000
H    -1.166000000    -9.637000000     1.083000000
H    -1.055000000   -10.697000000     0.008000000
O    -4.258000000    -9.015000000     0.516000000
H    -4.978000000    -8.948000000     1.143000000
H    -3.682000000    -9.686000000     0.883000000
O    -4.872000000    -4.407000000    -4.416000000
H    -5.116000000    -3.649000000    -4.947000000
H    -5.535000000    -4.440000000    -3.726000000
O    -0.310000000    -7.181000000    -5.378000000
H    -0.577000000    -6.567000000    -4.694000000
H    -1.132000000    -7.469000000    -5.775000000
O     0.550000000    -8.860000000     2.368000000
H     0.628000000    -7.924000000     2.555000000
H     1.211000000    -9.025000000     1.696000000
O    -5.732000000    -7.245000000    -2.774000000
H    -5.153000000    -7.991000000    -2.613000000
H    -6.408000000    -7.317000000    -2.101000000
O    -2.027000000    -5.920000000    -3.657000000
H    -2.982000000    -5.943000000    -3.721000000
H    -1.853000000    -5.692000000    -2.744000000
O    -2.810000000    -3.584000000    -6.836000000
H    -2.471000000    -3.281000000    -5.994000000
H    -2.140000000    -3.329000000    -7.470000000
O    -3.624000000    -9.337000000    -2.238000000
H    -3.747000000    -9.196000000    -1.300000000
H    -2.939000000   -10.004000000    -2.292000000
O    -7.727000000    -5.200000000     0.892000000
H    -6.923000000    -5.374000000     0.402000000
H    -7.447000000    -4.647000000     1.621000000
O    -0.953000000    -8.096000000    -1.492000000
H    -1.873000000    -8.356000000    -1.538000000
H    -0.977000000    -7.140000000    -1.446000000
O    -5.340000000    -5.005000000    -0.353000000
H    -5.393000000    -5.107000000    -1.304000000
H    -4.407000000    -4.884000000    -0.177000000
O    -3.399000000    -6.449000000     1.780000000
H    -3.090000000    -5.623000000     1.407000000
H    -3.764000000    -6.927000000     1.035000000
O    -3.414000000    -7.545000000     4.368000000
H    -3.227000000    -7.327000000     3.454000000
H    -3.895000000    -6.788000000     4.701000000
O    -7.021000000    -3.850000000    -2.820000000
H    -6.999000000    -2.933000000    -3.093000000
H    -7.882000000    -3.959000000    -2.415000000
O    -5.267000000    -5.730000000     4.140000000
H    -4.890000000    -6.027000000     3.312000000
H    -5.852000000    -5.014000000     3.893000000
O     0.778000000   -10.304000000    -1.697000000
H     1.224000000   -10.006000000    -2.489000000
H     0.181000000    -9.590000000    -1.475000000
