201
-1277.36740
C    -3.627000000     1.993000000     2.172000000
H    -3.450000000     2.764000000     1.426000000
C    -2.699000000     1.881000000     3.245000000
C    -3.045000000     1.068000000     4.355000000
H    -2.437000000     0.942000000     5.247000000
C    -1.312000000     2.544000000     3.157000000
O    -1.293000000     3.898000000     2.842000000
H    -0.860000000     1.948000000     2.350000000
O    -0.494000000     2.380000000     4.391000000
C     0.830000000     2.029000000     4.228000000
C     1.205000000     0.699000000     4.507000000
H     0.466000000     0.077000000     5.004000000
C     2.410000000     0.161000000     4.106000000
O     2.557000000    -1.236000000     4.210000000
C     3.405000000     0.922000000     3.530000000
C     4.785000000     0.397000000     3.201000000
H     5.499000000     1.196000000     3.415000000
C     4.880000000    -0.259000000     1.760000000
C     5.079000000     0.599000000     0.653000000
H     5.228000000     1.672000000     0.744000000
H     4.988000000    -0.391000000     3.929000000
C     3.120000000     2.284000000     3.440000000
H     3.920000000     2.946000000     3.120000000
C     1.812000000     2.870000000     3.633000000
C     1.500000000     4.315000000     3.410000000
H     2.427000000     4.892000000     3.391000000
H     0.901000000     4.743000000     4.217000000
C     0.867000000     4.535000000     2.047000000
C     1.681000000     4.812000000     0.952000000
H     2.758000000     4.941000000     1.027000000
C    -0.527000000     4.320000000     1.833000000
C    -1.094000000     4.521000000     0.591000000
H    -2.118000000     4.192000000     0.434000000
C    -0.249000000     4.632000000    -0.539000000
O    -0.942000000     4.514000000    -1.728000000
C    -0.787000000     3.396000000    -2.640000000
C    -2.096000000     3.114000000    -3.386000000
C    -1.992000000     2.374000000    -4.563000000
H    -1.019000000     2.122000000    -4.977000000
C    -3.326000000     3.475000000    -2.828000000
H    -3.348000000     3.940000000    -1.846000000
O     0.374000000     3.624000000    -3.486000000
H    -0.698000000     2.442000000    -2.100000000
C     1.140000000     4.783000000    -0.385000000
C     2.086000000     4.991000000    -1.550000000
H     2.926000000     5.581000000    -1.177000000
H     1.514000000     5.583000000    -2.267000000
C     2.404000000     3.629000000    -2.201000000
C     3.553000000     2.963000000    -1.777000000
H     4.215000000     3.388000000    -1.027000000
C     1.531000000     2.979000000    -3.052000000
C     1.916000000     1.778000000    -3.602000000
H     1.269000000     1.270000000    -4.313000000
C     3.080000000     1.112000000    -3.221000000
O     3.312000000    -0.152000000    -3.685000000
C     3.040000000    -1.228000000    -2.743000000
C     2.266000000    -2.410000000    -3.316000000
C     1.256000000    -2.098000000    -4.215000000
H     1.015000000    -1.061000000    -4.433000000
C     2.378000000    -3.763000000    -2.892000000
H     3.096000000    -4.066000000    -2.134000000
O     4.271000000    -1.716000000    -2.081000000
H     2.398000000    -0.790000000    -1.964000000
C     3.859000000     1.692000000    -2.264000000
C     5.171000000     0.994000000    -1.779000000
H     5.885000000     1.734000000    -1.412000000
H     5.696000000     0.513000000    -2.607000000
C     5.031000000     0.073000000    -0.632000000
C     4.586000000    -1.264000000    -0.857000000
C     4.415000000    -2.111000000     0.233000000
H     3.995000000    -3.088000000     0.006000000
C     4.437000000    -1.586000000     1.534000000
O     3.786000000    -2.309000000     2.512000000
C     2.470000000    -1.909000000     2.875000000
H     1.946000000    -1.229000000     2.187000000
C     1.515000000    -3.125000000     2.885000000
C     0.466000000    -3.046000000     3.790000000
H     0.410000000    -2.175000000     4.437000000
C     1.588000000    -4.205000000     1.966000000
H     2.408000000    -4.334000000     1.264000000
C     0.659000000    -5.256000000     2.056000000
O     0.679000000    -6.346000000     1.231000000
C    -0.316000000    -5.209000000     3.007000000
H    -1.037000000    -6.020000000     2.950000000
C    -0.468000000    -4.146000000     3.887000000
O    -1.517000000    -4.234000000     4.784000000
C    -2.090000000    -3.264000000     5.560000000
C    -2.926000000    -2.335000000     4.944000000
H    -3.128000000    -2.313000000     3.876000000
C    -1.860000000    -3.380000000     6.940000000
H    -1.155000000    -4.015000000     7.469000000
C    -2.529000000    -2.527000000     7.759000000
H    -2.215000000    -2.534000000     8.800000000
C    -3.438000000    -1.499000000     7.184000000
H    -4.042000000    -0.841000000     7.804000000
C    -3.607000000    -1.441000000     5.808000000
O    -4.495000000    -0.515000000     5.352000000
C    -4.243000000     0.368000000     4.362000000
C    -5.164000000     0.388000000     3.246000000
H    -6.107000000    -0.149000000     3.189000000
C    -4.818000000     1.211000000     2.186000000
O    -5.618000000     1.266000000     1.113000000
C    -5.920000000     2.411000000     0.351000000
C    -5.647000000     2.470000000    -1.018000000
H    -5.293000000     1.592000000    -1.552000000
C    -6.631000000     3.492000000     0.942000000
H    -7.025000000     3.340000000     1.944000000
C    -7.100000000     4.501000000     0.122000000
H    -7.755000000     5.263000000     0.537000000
C    -6.751000000     4.599000000    -1.185000000
H    -7.192000000     5.323000000    -1.866000000
C    -6.002000000     3.573000000    -1.781000000
O    -5.809000000     3.589000000    -3.117000000
C    -4.460000000     3.280000000    -3.561000000
C    -4.441000000     2.499000000    -4.710000000
H    -5.333000000     2.165000000    -5.234000000
C    -3.199000000     2.055000000    -5.220000000
O    -3.201000000     1.249000000    -6.328000000
C    -2.085000000     0.401000000    -6.494000000
C    -1.913000000    -0.721000000    -5.670000000
H    -2.646000000    -0.771000000    -4.868000000
C    -1.257000000     0.679000000    -7.552000000
H    -1.373000000     1.558000000    -8.181000000
C    -0.256000000    -0.244000000    -7.927000000
H     0.450000000     0.013000000    -8.712000000
C    -0.163000000    -1.470000000    -7.230000000
H     0.634000000    -2.187000000    -7.410000000
C    -0.945000000    -1.640000000    -6.091000000
O    -0.718000000    -2.841000000    -5.319000000
C     0.398000000    -3.081000000    -4.652000000
C     0.660000000    -4.446000000    -4.415000000
H     0.020000000    -5.248000000    -4.775000000
C     1.710000000    -4.774000000    -3.589000000
O     2.036000000    -6.084000000    -3.266000000
C     2.289000000    -6.536000000    -1.989000000
C     3.400000000    -7.323000000    -1.682000000
H     3.929000000    -7.722000000    -2.544000000
C     3.671000000    -7.830000000    -0.410000000
H     4.398000000    -8.607000000    -0.187000000
C     2.782000000    -7.423000000     0.617000000
H     2.848000000    -7.693000000     1.668000000
C     1.706000000    -6.571000000     0.357000000
C     1.454000000    -6.139000000    -0.933000000
H     0.489000000    -5.667000000    -1.096000000
O    -2.003000000    -4.464000000     0.652000000
H    -1.142000000    -4.614000000     1.042000000
H    -1.985000000    -4.961000000    -0.167000000
O    -5.227000000    -0.850000000    -7.485000000
H    -5.094000000    -0.746000000    -6.542000000
H    -6.152000000    -0.646000000    -7.620000000
O    -7.961000000    -3.503000000    -0.805000000
H    -8.441000000    -2.946000000    -0.191000000
H    -7.079000000    -3.131000000    -0.827000000
O    -2.970000000    -4.231000000    -7.377000000
H    -2.042000000    -4.439000000    -7.270000000
H    -3.164000000    -3.628000000    -6.659000000
O    -3.293000000    -5.531000000    -4.748000000
H    -3.733000000    -4.724000000    -5.016000000
H    -2.598000000    -5.651000000    -5.395000000
O    -5.064000000    -4.397000000    -2.218000000
H    -4.743000000    -5.280000000    -2.401000000
H    -4.320000000    -3.827000000    -2.412000000
O    -7.841000000    -4.490000000    -3.538000000
H    -7.072000000    -4.373000000    -2.981000000
H    -8.243000000    -3.622000000    -3.577000000
O    -5.937000000    -0.983000000    -4.792000000
H    -5.417000000    -0.618000000    -4.076000000
H    -6.582000000    -1.541000000    -4.359000000
O    -3.813000000    -2.863000000    -5.249000000
H    -3.590000000    -2.832000000    -4.319000000
H    -4.681000000    -2.463000000    -5.301000000
O    -5.847000000    -5.264000000     0.071000000
H    -6.353000000    -4.551000000     0.461000000
H    -5.553000000    -4.916000000    -0.771000000
O    -8.740000000    -1.862000000    -4.138000000
H    -9.170000000    -1.454000000    -3.387000000
H    -8.701000000    -1.170000000    -4.798000000
O    -8.752000000     0.785000000    -2.313000000
H    -9.406000000     0.169000000    -1.981000000
H    -7.914000000     0.346000000    -2.166000000
O    -1.833000000    -5.415000000    -1.986000000
H    -2.042000000    -4.594000000    -2.432000000
H    -2.558000000    -6.000000000    -2.210000000
O    -6.344000000    -0.898000000    -1.583000000
H    -6.173000000    -1.062000000    -0.655000000
H    -5.483000000    -0.958000000    -1.998000000
O    -3.306000000    -1.674000000     1.113000000
H    -2.906000000    -1.234000000     0.362000000
H    -2.901000000    -2.541000000     1.126000000
O    -4.007000000    -5.360000000     2.161000000
H    -4.662000000    -5.498000000     1.477000000
H    -3.326000000    -4.837000000     1.738000000
O    -5.922000000    -2.102000000     0.986000000
H    -4.987000000    -1.968000000     1.141000000
H    -6.309000000    -2.121000000     1.861000000
O    -0.754000000    -7.585000000    -3.480000000
H     0.197000000    -7.658000000    -3.558000000
H    -0.891000000    -6.806000000    -2.941000000
O    -3.921000000    -7.022000000    -2.601000000
H    -3.779000000    -6.656000000    -3.474000000
H    -4.611000000    -7.674000000    -2.724000000
