201
-1231.92180
C    -4.584000000     2.221000000     2.503000000
H    -4.281000000     3.149000000     2.025000000
C    -3.626000000     1.530000000     3.255000000
C    -3.981000000     0.280000000     3.809000000
H    -3.292000000    -0.415000000     4.282000000
C    -2.168000000     2.103000000     3.362000000
O    -2.045000000     3.544000000     3.315000000
H    -1.729000000     1.654000000     2.460000000
O    -1.439000000     1.522000000     4.459000000
C    -0.148000000     1.031000000     4.368000000
C     0.020000000    -0.329000000     4.326000000
H    -0.849000000    -0.979000000     4.275000000
C     1.391000000    -0.859000000     4.120000000
O     1.555000000    -2.210000000     3.816000000
C     2.458000000     0.050000000     4.056000000
C     3.872000000    -0.517000000     3.791000000
H     4.499000000     0.182000000     4.349000000
C     4.244000000    -0.728000000     2.296000000
C     4.836000000     0.341000000     1.588000000
H     5.014000000     1.301000000     2.065000000
H     4.040000000    -1.464000000     4.309000000
C     2.190000000     1.417000000     4.366000000
H     3.084000000     2.016000000     4.518000000
C     0.891000000     1.937000000     4.476000000
C     0.643000000     3.462000000     4.475000000
H     1.536000000     3.930000000     4.893000000
H    -0.108000000     3.809000000     5.188000000
C     0.332000000     3.979000000     3.012000000
C     1.415000000     4.319000000     2.240000000
H     2.451000000     4.149000000     2.521000000
C    -1.015000000     4.038000000     2.521000000
C    -1.250000000     4.488000000     1.243000000
H    -2.252000000     4.574000000     0.831000000
C    -0.109000000     4.867000000     0.479000000
O    -0.365000000     5.136000000    -0.833000000
C    -0.123000000     3.964000000    -1.606000000
C    -1.404000000     3.733000000    -2.500000000
C    -1.126000000     3.221000000    -3.797000000
H    -0.115000000     3.130000000    -4.184000000
C    -2.706000000     3.734000000    -2.014000000
H    -2.889000000     4.188000000    -1.043000000
O     1.051000000     4.225000000    -2.406000000
H     0.020000000     3.039000000    -1.029000000
C     1.193000000     4.727000000     0.953000000
C     2.379000000     5.083000000     0.097000000
H     3.148000000     5.433000000     0.788000000
H     2.183000000     5.927000000    -0.568000000
C     2.870000000     4.033000000    -0.866000000
C     4.060000000     3.299000000    -0.477000000
H     4.570000000     3.577000000     0.442000000
C     2.170000000     3.637000000    -2.033000000
C     2.632000000     2.562000000    -2.738000000
H     2.012000000     2.236000000    -3.568000000
C     3.698000000     1.782000000    -2.303000000
O     3.984000000     0.592000000    -2.973000000
C     3.685000000    -0.705000000    -2.388000000
C     3.068000000    -1.672000000    -3.232000000
C     1.931000000    -1.283000000    -3.981000000
H     1.600000000    -0.258000000    -4.128000000
C     3.459000000    -2.977000000    -3.177000000
H     4.418000000    -3.290000000    -2.773000000
O     4.876000000    -1.165000000    -1.783000000
H     2.927000000    -0.583000000    -1.601000000
C     4.495000000     2.164000000    -1.193000000
C     5.646000000     1.279000000    -0.698000000
H     6.377000000     1.895000000    -0.170000000
H     6.287000000     0.840000000    -1.466000000
C     5.087000000     0.123000000     0.197000000
C     4.836000000    -1.076000000    -0.422000000
C     4.173000000    -2.040000000     0.239000000
H     3.798000000    -2.924000000    -0.269000000
C     3.846000000    -1.873000000     1.569000000
O     3.177000000    -2.840000000     2.199000000
C     1.843000000    -2.597000000     2.456000000
H     1.539000000    -1.749000000     1.825000000
C     0.962000000    -3.780000000     2.008000000
C    -0.428000000    -3.648000000     2.105000000
H    -0.868000000    -2.765000000     2.562000000
C     1.450000000    -4.946000000     1.320000000
H     2.526000000    -5.064000000     1.217000000
C     0.653000000    -5.938000000     0.861000000
O     1.148000000    -7.090000000     0.214000000
C    -0.728000000    -5.810000000     0.994000000
H    -1.377000000    -6.626000000     0.687000000
C    -1.247000000    -4.686000000     1.687000000
O    -2.612000000    -4.542000000     1.891000000
C    -3.229000000    -4.085000000     3.102000000
C    -4.081000000    -2.969000000     3.030000000
H    -4.045000000    -2.196000000     2.266000000
C    -3.231000000    -4.908000000     4.201000000
H    -2.670000000    -5.835000000     4.297000000
C    -4.167000000    -4.639000000     5.197000000
H    -4.329000000    -5.429000000     5.926000000
C    -4.888000000    -3.495000000     5.210000000
H    -5.617000000    -3.251000000     5.978000000
C    -4.799000000    -2.587000000     4.155000000
O    -5.612000000    -1.450000000     4.234000000
C    -5.267000000    -0.199000000     3.763000000
C    -6.262000000     0.649000000     3.191000000
H    -7.320000000     0.401000000     3.177000000
C    -5.881000000     1.776000000     2.536000000
O    -6.835000000     2.487000000     1.778000000
C    -6.505000000     3.412000000     0.775000000
C    -5.921000000     3.018000000    -0.426000000
H    -5.778000000     1.966000000    -0.659000000
C    -6.567000000     4.780000000     1.126000000
H    -6.827000000     5.068000000     2.141000000
C    -6.097000000     5.749000000     0.249000000
H    -6.042000000     6.784000000     0.577000000
C    -5.567000000     5.357000000    -1.008000000
H    -5.191000000     6.086000000    -1.721000000
C    -5.589000000     3.994000000    -1.299000000
O    -5.116000000     3.564000000    -2.574000000
C    -3.771000000     3.539000000    -2.887000000
C    -3.544000000     3.032000000    -4.169000000
H    -4.439000000     2.750000000    -4.718000000
C    -2.216000000     2.821000000    -4.606000000
O    -1.859000000     2.454000000    -5.858000000
C    -0.869000000     1.535000000    -6.227000000
C    -0.822000000     0.335000000    -5.544000000
H    -1.457000000     0.235000000    -4.667000000
C    -0.038000000     1.811000000    -7.277000000
H    -0.108000000     2.748000000    -7.823000000
C     0.809000000     0.793000000    -7.787000000
H     1.525000000     1.004000000    -8.577000000
C     0.749000000    -0.445000000    -7.188000000
H     1.472000000    -1.174000000    -7.544000000
C    -0.048000000    -0.665000000    -6.046000000
O     0.129000000    -1.822000000    -5.355000000
C     1.259000000    -2.238000000    -4.684000000
C     1.650000000    -3.562000000    -4.658000000
H     1.070000000    -4.161000000    -5.356000000
C     2.735000000    -3.998000000    -3.881000000
O     3.090000000    -5.361000000    -3.913000000
C     3.194000000    -6.100000000    -2.725000000
C     3.968000000    -7.202000000    -2.887000000
H     4.560000000    -7.407000000    -3.775000000
C     4.053000000    -8.212000000    -1.894000000
H     4.588000000    -9.157000000    -1.946000000
C     3.199000000    -8.090000000    -0.763000000
H     3.149000000    -8.913000000    -0.054000000
C     2.296000000    -7.011000000    -0.666000000
C     2.280000000    -6.089000000    -1.688000000
H     1.383000000    -5.487000000    -1.813000000
O    -3.766000000    -0.177000000    -7.212000000
H    -2.953000000     0.326000000    -7.164000000
H    -4.060000000    -0.070000000    -8.117000000
O    -2.735000000    -5.891000000    -6.478000000
H    -3.053000000    -5.222000000    -5.872000000
H    -3.526000000    -6.346000000    -6.768000000
O    -4.404000000    -5.977000000    -2.892000000
H    -4.067000000    -5.087000000    -2.790000000
H    -5.344000000    -5.862000000    -3.036000000
O    -1.451000000    -8.737000000    -1.319000000
H    -0.896000000    -8.853000000    -0.547000000
H    -1.370000000    -7.808000000    -1.535000000
O    -6.372000000    -2.384000000    -1.007000000
H    -5.633000000    -2.980000000    -0.887000000
H    -6.337000000    -2.142000000    -1.932000000
O    -1.540000000    -6.131000000    -2.351000000
H    -2.434000000    -5.900000000    -2.602000000
H    -1.242000000    -5.393000000    -1.820000000
O    -1.536000000    -7.686000000    -4.611000000
H    -1.421000000    -7.072000000    -3.886000000
H    -2.040000000    -7.197000000    -5.261000000
O    -5.780000000    -6.761000000    -0.050000000
H    -5.263000000    -6.105000000    -0.516000000
H    -6.595000000    -6.311000000     0.171000000
O    -4.458000000    -0.201000000    -4.454000000
H    -4.058000000    -0.410000000    -5.298000000
H    -4.265000000    -0.961000000    -3.904000000
O    -3.148000000    -2.611000000    -8.518000000
H    -3.961000000    -3.045000000    -8.776000000
H    -3.413000000    -1.991000000    -7.837000000
O    -7.155000000    -5.311000000    -2.897000000
H    -7.254000000    -5.088000000    -1.972000000
H    -6.926000000    -4.484000000    -3.320000000
O    -8.080000000    -1.236000000    -4.315000000
H    -9.012000000    -1.384000000    -4.156000000
H    -8.054000000    -0.698000000    -5.106000000
O    -9.102000000    -2.049000000    -0.730000000
H    -9.403000000    -1.158000000    -0.550000000
H    -8.158000000    -1.960000000    -0.860000000
O    -6.818000000     1.046000000    -3.940000000
H    -5.924000000     0.716000000    -4.030000000
H    -7.346000000     0.265000000    -3.774000000
O    -4.470000000    -4.171000000    -0.229000000
H    -3.964000000    -4.235000000     0.582000000
H    -3.817000000    -3.991000000    -0.905000000
O    -6.194000000    -3.112000000    -4.110000000
H    -5.323000000    -2.751000000    -3.945000000
H    -6.757000000    -2.344000000    -4.214000000
O    -6.732000000    -0.903000000    -6.742000000
H    -5.926000000    -0.391000000    -6.813000000
H    -6.435000000    -1.808000000    -6.651000000
O    -3.143000000    -3.361000000    -5.403000000
H    -2.256000000    -3.077000000    -5.620000000
H    -3.285000000    -3.044000000    -4.511000000
O    -7.764000000    -4.897000000     0.054000000
H    -7.371000000    -4.061000000     0.305000000
H    -8.693000000    -4.700000000    -0.061000000
