201
-1238.07408
C    -4.365000000     2.121000000     1.712000000
H    -3.991000000     3.014000000     1.217000000
C    -3.597000000     1.448000000     2.699000000
C    -4.052000000     0.304000000     3.254000000
H    -3.372000000    -0.200000000     3.937000000
C    -2.317000000     2.116000000     3.181000000
O    -2.250000000     3.561000000     3.006000000
H    -1.524000000     1.724000000     2.526000000
O    -1.856000000     1.857000000     4.510000000
C    -0.656000000     1.214000000     4.513000000
C    -0.480000000    -0.150000000     4.400000000
H    -1.318000000    -0.843000000     4.385000000
C     0.773000000    -0.756000000     4.525000000
O     0.807000000    -2.053000000     4.362000000
C     1.878000000     0.134000000     4.591000000
C     3.311000000    -0.396000000     4.598000000
H     3.851000000     0.417000000     5.088000000
C     3.779000000    -0.735000000     3.239000000
C     4.358000000     0.261000000     2.460000000
H     4.560000000     1.223000000     2.924000000
H     3.476000000    -1.279000000     5.219000000
C     1.722000000     1.486000000     4.575000000
H     2.595000000     2.132000000     4.541000000
C     0.470000000     2.074000000     4.558000000
C     0.297000000     3.551000000     4.386000000
H     1.184000000     4.076000000     4.745000000
H    -0.524000000     3.869000000     5.032000000
C     0.066000000     3.946000000     2.910000000
C     1.144000000     4.351000000     2.108000000
H     2.121000000     4.485000000     2.565000000
C    -1.252000000     4.092000000     2.380000000
C    -1.390000000     4.457000000     1.037000000
H    -2.322000000     4.465000000     0.478000000
C    -0.256000000     4.764000000     0.258000000
O    -0.558000000     4.863000000    -1.044000000
C    -0.072000000     3.821000000    -1.960000000
C    -0.932000000     3.427000000    -3.118000000
C    -0.458000000     3.130000000    -4.390000000
H     0.575000000     3.306000000    -4.679000000
C    -2.288000000     3.261000000    -2.920000000
H    -2.644000000     3.299000000    -1.894000000
O     1.235000000     4.126000000    -2.477000000
H     0.092000000     2.907000000    -1.370000000
C     1.038000000     4.683000000     0.786000000
C     2.254000000     5.080000000    -0.029000000
H     2.979000000     5.575000000     0.620000000
H     2.038000000     5.872000000    -0.750000000
C     2.776000000     3.835000000    -0.683000000
C     3.748000000     3.162000000     0.004000000
H     4.066000000     3.551000000     0.968000000
C     2.344000000     3.505000000    -1.974000000
C     3.016000000     2.410000000    -2.597000000
H     2.548000000     2.102000000    -3.529000000
C     4.012000000     1.701000000    -1.909000000
O     4.471000000     0.465000000    -2.401000000
C     3.948000000    -0.730000000    -1.786000000
C     3.493000000    -1.729000000    -2.848000000
C     2.809000000    -1.282000000    -4.013000000
H     2.715000000    -0.222000000    -4.236000000
C     3.522000000    -3.104000000    -2.598000000
H     3.948000000    -3.403000000    -1.644000000
O     4.851000000    -1.325000000    -0.804000000
H     2.963000000    -0.482000000    -1.364000000
C     4.374000000     2.044000000    -0.588000000
C     5.391000000     1.250000000     0.334000000
H     5.878000000     1.970000000     0.996000000
H     6.322000000     0.935000000    -0.141000000
C     4.834000000     0.057000000     1.122000000
C     4.575000000    -1.195000000     0.528000000
C     3.940000000    -2.176000000     1.243000000
H     3.710000000    -3.080000000     0.685000000
C     3.575000000    -1.994000000     2.604000000
O     2.680000000    -2.951000000     3.165000000
C     1.281000000    -2.644000000     3.124000000
H     1.321000000    -1.818000000     2.398000000
C     0.426000000    -3.876000000     2.687000000
C    -0.860000000    -4.072000000     3.208000000
H    -1.040000000    -3.446000000     4.078000000
C     0.733000000    -4.593000000     1.552000000
H     1.740000000    -4.446000000     1.171000000
C    -0.126000000    -5.514000000     1.013000000
O     0.072000000    -6.356000000    -0.076000000
C    -1.392000000    -5.680000000     1.551000000
H    -2.091000000    -6.434000000     1.198000000
C    -1.705000000    -5.051000000     2.709000000
O    -2.974000000    -5.357000000     3.319000000
C    -3.753000000    -4.443000000     4.005000000
C    -4.310000000    -3.406000000     3.283000000
H    -4.118000000    -3.231000000     2.227000000
C    -3.931000000    -4.542000000     5.374000000
H    -3.564000000    -5.450000000     5.844000000
C    -4.637000000    -3.543000000     6.060000000
H    -4.922000000    -3.641000000     7.104000000
C    -5.146000000    -2.421000000     5.325000000
H    -5.656000000    -1.590000000     5.806000000
C    -5.022000000    -2.374000000     3.966000000
O    -5.719000000    -1.387000000     3.316000000
C    -5.307000000    -0.219000000     2.854000000
C    -6.092000000     0.477000000     1.957000000
H    -7.093000000     0.104000000     1.757000000
C    -5.599000000     1.640000000     1.329000000
O    -6.509000000     2.393000000     0.669000000
C    -6.196000000     3.124000000    -0.492000000
C    -5.584000000     2.434000000    -1.534000000
H    -5.415000000     1.365000000    -1.429000000
C    -6.418000000     4.506000000    -0.514000000
H    -7.039000000     5.106000000     0.145000000
C    -5.999000000     5.250000000    -1.633000000
H    -6.340000000     6.276000000    -1.749000000
C    -5.398000000     4.606000000    -2.700000000
H    -4.979000000     5.050000000    -3.599000000
C    -5.168000000     3.203000000    -2.648000000
O    -4.439000000     2.490000000    -3.610000000
C    -3.150000000     2.838000000    -3.911000000
C    -2.696000000     2.553000000    -5.191000000
H    -3.271000000     1.940000000    -5.880000000
C    -1.298000000     2.682000000    -5.400000000
O    -0.756000000     2.343000000    -6.671000000
C     0.296000000     1.539000000    -6.972000000
C     0.353000000     0.310000000    -6.281000000
H    -0.413000000     0.151000000    -5.526000000
C     1.213000000     1.870000000    -7.978000000
H     1.204000000     2.787000000    -8.561000000
C     2.074000000     0.847000000    -8.453000000
H     2.813000000     1.052000000    -9.224000000
C     2.213000000    -0.348000000    -7.711000000
H     2.957000000    -1.096000000    -7.971000000
C     1.318000000    -0.595000000    -6.645000000
O     1.525000000    -1.854000000    -6.039000000
C     2.209000000    -2.211000000    -4.887000000
C     2.320000000    -3.582000000    -4.669000000
H     1.906000000    -4.330000000    -5.340000000
C     3.035000000    -3.986000000    -3.526000000
O     3.254000000    -5.309000000    -3.420000000
C     2.876000000    -5.990000000    -2.287000000
C     3.793000000    -6.756000000    -1.652000000
H     4.720000000    -6.950000000    -2.184000000
C     3.511000000    -7.369000000    -0.454000000
H     4.324000000    -7.893000000     0.043000000
C     2.286000000    -7.187000000     0.154000000
H     2.006000000    -7.599000000     1.120000000
C     1.295000000    -6.448000000    -0.608000000
C     1.577000000    -5.839000000    -1.768000000
H     0.787000000    -5.392000000    -2.367000000
O    -6.471000000    -6.992000000    -2.555000000
H    -6.085000000    -7.420000000    -3.320000000
H    -6.136000000    -6.095000000    -2.588000000
O    -4.714000000    -8.683000000    -0.106000000
H    -3.880000000    -8.871000000    -0.535000000
H    -4.667000000    -7.752000000     0.112000000
O    -5.220000000    -5.901000000     0.429000000
H    -6.035000000    -5.788000000    -0.061000000
H    -4.650000000    -5.202000000     0.110000000
O    -5.648000000    -7.254000000     2.876000000
H    -5.412000000    -6.364000000     3.138000000
H    -5.447000000    -7.290000000     1.941000000
O    -8.566000000    -3.332000000     2.929000000
H    -8.026000000    -3.394000000     2.142000000
H    -8.930000000    -4.210000000     3.041000000
O    -5.806000000    -4.234000000    -2.609000000
H    -5.162000000    -3.916000000    -1.977000000
H    -6.570000000    -3.674000000    -2.474000000
O    -6.974000000    -3.129000000     0.539000000
H    -7.118000000    -3.969000000     0.104000000
H    -6.273000000    -2.714000000     0.036000000
O    -3.821000000    -1.265000000    -5.962000000
H    -4.383000000    -1.153000000    -5.195000000
H    -3.176000000    -1.920000000    -5.692000000
O    -9.397000000     1.093000000    -1.048000000
H    -8.723000000     0.415000000    -1.004000000
H    -9.323000000     1.559000000    -0.215000000
O    -4.847000000    -1.299000000    -3.384000000
H    -5.575000000    -0.679000000    -3.428000000
H    -4.772000000    -1.515000000    -2.454000000
O    -8.044000000    -5.468000000    -0.649000000
H    -8.004000000    -6.336000000    -1.049000000
H    -8.359000000    -4.896000000    -1.349000000
O    -1.063000000    -2.541000000    -4.106000000
H    -0.133000000    -2.455000000    -4.316000000
H    -1.342000000    -1.651000000    -3.890000000
O    -1.884000000    -4.690000000    -2.429000000
H    -2.533000000    -4.434000000    -1.774000000
H    -1.577000000    -3.862000000    -2.798000000
O    -0.532000000    -6.488000000    -4.065000000
H    -0.962000000    -7.298000000    -4.340000000
H    -1.222000000    -5.987000000    -3.629000000
O    -2.158000000    -0.135000000    -3.401000000
H    -2.233000000     0.725000000    -2.988000000
H    -3.062000000    -0.435000000    -3.497000000
O    -8.406000000    -3.035000000    -2.521000000
H    -8.345000000    -2.349000000    -3.187000000
H    -9.346000000    -3.153000000    -2.384000000
O    -7.109000000     0.102000000    -3.434000000
H    -7.080000000     0.037000000    -2.479000000
H    -7.142000000     1.043000000    -3.609000000
O    -7.070000000    -0.581000000    -0.869000000
H    -6.183000000    -0.880000000    -0.672000000
H    -7.629000000    -1.325000000    -0.647000000
O    -4.054000000    -4.387000000    -5.182000000
H    -4.998000000    -4.324000000    -5.036000000
H    -3.669000000    -4.270000000    -4.313000000
