201
-1230.70123
C    -4.412000000     2.223000000     1.862000000
H    -4.072000000     3.082000000     1.288000000
C    -3.581000000     1.757000000     2.837000000
C    -3.982000000     0.598000000     3.505000000
H    -3.286000000     0.090000000     4.169000000
C    -2.198000000     2.274000000     2.994000000
O    -2.101000000     3.739000000     2.691000000
H    -1.640000000     1.707000000     2.235000000
O    -1.642000000     2.057000000     4.277000000
C    -0.310000000     1.616000000     4.365000000
C    -0.109000000     0.320000000     4.541000000
H    -0.990000000    -0.257000000     4.808000000
C     1.161000000    -0.273000000     4.572000000
O     1.198000000    -1.638000000     4.619000000
C     2.256000000     0.516000000     4.278000000
C     3.639000000     0.033000000     4.228000000
H     4.338000000     0.843000000     4.447000000
C     3.932000000    -0.511000000     2.853000000
C     4.550000000     0.381000000     1.977000000
H     4.957000000     1.328000000     2.322000000
H     3.804000000    -0.775000000     4.945000000
C     2.082000000     1.941000000     4.157000000
H     2.943000000     2.573000000     3.957000000
C     0.778000000     2.506000000     4.177000000
C     0.522000000     4.092000000     3.958000000
H     1.401000000     4.579000000     4.384000000
H    -0.286000000     4.415000000     4.618000000
C     0.283000000     4.302000000     2.512000000
C     1.336000000     4.656000000     1.681000000
H     2.337000000     4.564000000     2.094000000
C    -1.020000000     4.200000000     1.961000000
C    -1.207000000     4.303000000     0.627000000
H    -2.216000000     4.192000000     0.238000000
C    -0.147000000     4.508000000    -0.197000000
O    -0.387000000     4.545000000    -1.586000000
C     0.044000000     3.485000000    -2.406000000
C    -0.854000000     3.148000000    -3.539000000
C    -0.418000000     2.747000000    -4.744000000
H     0.646000000     2.764000000    -4.965000000
C    -2.228000000     3.139000000    -3.240000000
H    -2.494000000     3.351000000    -2.207000000
O     1.357000000     3.849000000    -2.988000000
H     0.177000000     2.594000000    -1.775000000
C     1.104000000     4.730000000     0.312000000
C     2.332000000     4.998000000    -0.546000000
H     3.156000000     5.314000000     0.097000000
H     2.159000000     5.702000000    -1.363000000
C     2.926000000     3.742000000    -1.228000000
C     3.892000000     2.952000000    -0.573000000
H     4.166000000     3.124000000     0.465000000
C     2.523000000     3.366000000    -2.452000000
C     3.109000000     2.274000000    -3.127000000
H     2.594000000     1.849000000    -3.984000000
C     4.044000000     1.464000000    -2.520000000
O     4.048000000     0.178000000    -3.025000000
C     3.462000000    -0.833000000    -2.230000000
C     2.904000000    -1.987000000    -3.102000000
C     2.254000000    -1.675000000    -4.279000000
H     2.062000000    -0.661000000    -4.619000000
C     2.817000000    -3.348000000    -2.628000000
H     3.234000000    -3.598000000    -1.656000000
O     4.418000000    -1.447000000    -1.285000000
H     2.670000000    -0.366000000    -1.626000000
C     4.465000000     1.827000000    -1.202000000
C     5.411000000     1.070000000    -0.356000000
H     5.987000000     1.809000000     0.206000000
H     6.115000000     0.586000000    -1.037000000
C     4.687000000     0.108000000     0.585000000
C     4.286000000    -1.130000000     0.066000000
C     3.825000000    -2.123000000     0.966000000
H     3.521000000    -3.063000000     0.512000000
C     3.530000000    -1.743000000     2.312000000
O     2.828000000    -2.609000000     3.133000000
C     1.435000000    -2.324000000     3.352000000
H     1.045000000    -1.674000000     2.555000000
C     0.466000000    -3.530000000     3.234000000
C    -0.815000000    -3.557000000     3.878000000
H    -1.202000000    -2.736000000     4.477000000
C     0.825000000    -4.501000000     2.310000000
H     1.736000000    -4.292000000     1.754000000
C     0.044000000    -5.708000000     2.198000000
O     0.412000000    -6.586000000     1.234000000
C    -1.173000000    -5.730000000     2.878000000
H    -1.823000000    -6.598000000     2.799000000
C    -1.644000000    -4.689000000     3.690000000
O    -2.875000000    -4.810000000     4.299000000
C    -3.634000000    -3.839000000     4.860000000
C    -4.080000000    -2.758000000     4.094000000
H    -3.726000000    -2.695000000     3.068000000
C    -4.147000000    -4.013000000     6.138000000
H    -3.712000000    -4.818000000     6.724000000
C    -5.087000000    -3.144000000     6.648000000
H    -5.557000000    -3.174000000     7.628000000
C    -5.621000000    -2.178000000     5.843000000
H    -6.440000000    -1.580000000     6.233000000
C    -5.076000000    -1.961000000     4.591000000
O    -5.767000000    -1.156000000     3.745000000
C    -5.270000000     0.021000000     3.272000000
C    -6.070000000     0.584000000     2.230000000
H    -7.003000000     0.090000000     1.972000000
C    -5.619000000     1.654000000     1.491000000
O    -6.424000000     2.245000000     0.533000000
C    -5.999000000     2.872000000    -0.540000000
C    -5.374000000     2.148000000    -1.551000000
H    -5.345000000     1.062000000    -1.533000000
C    -6.194000000     4.197000000    -0.679000000
H    -6.654000000     4.725000000     0.152000000
C    -5.930000000     4.895000000    -1.830000000
H    -6.085000000     5.970000000    -1.866000000
C    -5.243000000     4.252000000    -2.762000000
H    -5.064000000     4.871000000    -3.637000000
C    -5.031000000     2.874000000    -2.738000000
O    -4.461000000     2.355000000    -3.853000000
C    -3.131000000     2.586000000    -4.118000000
C    -2.704000000     2.286000000    -5.360000000
H    -3.419000000     1.938000000    -6.101000000
C    -1.312000000     2.378000000    -5.712000000
O    -0.817000000     2.082000000    -6.947000000
C     0.125000000     1.041000000    -7.204000000
C    -0.026000000    -0.285000000    -6.580000000
H    -0.856000000    -0.448000000    -5.897000000
C     1.266000000     1.340000000    -7.850000000
H     1.483000000     2.345000000    -8.203000000
C     2.305000000     0.421000000    -7.979000000
H     3.219000000     0.568000000    -8.547000000
C     2.127000000    -0.906000000    -7.514000000
H     2.966000000    -1.596000000    -7.568000000
C     0.990000000    -1.264000000    -6.846000000
O     0.846000000    -2.415000000    -6.150000000
C     1.474000000    -2.699000000    -4.975000000
C     1.476000000    -4.028000000    -4.558000000
H     1.015000000    -4.825000000    -5.136000000
C     2.184000000    -4.359000000    -3.393000000
O     2.214000000    -5.708000000    -3.044000000
C     2.407000000    -6.116000000    -1.743000000
C     3.695000000    -6.430000000    -1.256000000
H     4.531000000    -6.487000000    -1.948000000
C     3.816000000    -6.868000000    -0.003000000
H     4.783000000    -7.302000000     0.234000000
C     2.783000000    -6.831000000     0.886000000
H     2.908000000    -7.223000000     1.893000000
C     1.533000000    -6.425000000     0.432000000
C     1.296000000    -5.982000000    -0.866000000
H     0.338000000    -5.591000000    -1.200000000
O    -5.846000000    -6.938000000    -5.151000000
H    -5.669000000    -6.513000000    -4.311000000
H    -5.930000000    -7.867000000    -4.936000000
O    -4.413000000    -6.433000000     1.650000000
H    -4.425000000    -5.637000000     1.120000000
H    -4.156000000    -6.136000000     2.523000000
O    -8.922000000    -4.272000000    -3.052000000
H    -8.138000000    -4.112000000    -2.526000000
H    -9.397000000    -4.951000000    -2.572000000
O    -6.754000000    -7.433000000     2.888000000
H    -5.806000000    -7.299000000     2.884000000
H    -7.101000000    -6.705000000     2.372000000
O    -7.448000000     0.595000000    -3.334000000
H    -6.881000000    -0.106000000    -3.015000000
H    -8.079000000     0.733000000    -2.628000000
O    -6.592000000    -4.172000000    -1.499000000
H    -6.014000000    -3.696000000    -0.903000000
H    -6.156000000    -5.013000000    -1.636000000
O    -7.516000000    -2.539000000     1.751000000
H    -7.125000000    -2.063000000     2.484000000
H    -6.769000000    -2.841000000     1.235000000
O    -9.285000000    -3.389000000    -0.131000000
H    -8.880000000    -2.844000000     0.544000000
H    -8.549000000    -3.729000000    -0.639000000
O    -4.393000000    -0.644000000    -6.307000000
H    -3.871000000    -0.900000000    -5.547000000
H    -5.287000000    -0.576000000    -5.973000000
O    -4.083000000    -3.763000000    -4.292000000
H    -4.981000000    -3.454000000    -4.412000000
H    -3.557000000    -2.964000000    -4.257000000
O    -5.171000000    -6.820000000    -2.023000000
H    -4.217000000    -6.788000000    -1.946000000
H    -5.442000000    -7.468000000    -1.374000000
O    -2.557000000    -6.097000000    -1.560000000
H    -3.049000000    -5.418000000    -1.099000000
H    -2.458000000    -6.800000000    -0.917000000
O    -8.320000000    -5.345000000     1.786000000
H    -7.974000000    -4.488000000     1.536000000
H    -9.184000000    -5.382000000     1.375000000
O    -0.331000000    -0.788000000    -2.929000000
H    -0.648000000    -1.395000000    -2.261000000
H     0.574000000    -1.057000000    -3.087000000
O    -2.752000000    -8.199000000     0.507000000
H    -3.398000000    -7.691000000     0.999000000
H    -2.385000000    -8.806000000     1.150000000
O    -2.873000000    -0.967000000    -4.014000000
H    -1.960000000    -0.766000000    -3.807000000
H    -3.307000000    -1.008000000    -3.162000000
O    -6.869000000    -3.039000000    -5.087000000
H    -7.575000000    -3.131000000    -4.447000000
H    -7.284000000    -2.622000000    -5.843000000
O    -5.996000000    -1.494000000    -2.198000000
H    -6.253000000    -1.404000000    -1.281000000
H    -6.198000000    -2.404000000    -2.415000000
O    -2.154000000    -6.036000000    -4.391000000
H    -2.020000000    -6.108000000    -3.446000000
H    -2.801000000    -5.338000000    -4.489000000
