201
-1239.64005
C    -1.886000000    -2.264000000    -3.902000000
H    -1.571000000    -1.322000000    -4.342000000
C    -2.815000000    -2.338000000    -2.848000000
C    -3.051000000    -3.588000000    -2.184000000
H    -3.578000000    -3.530000000    -1.235000000
C    -3.450000000    -1.037000000    -2.305000000
O    -3.818000000    -0.163000000    -3.409000000
H    -2.751000000    -0.520000000    -1.631000000
O    -4.648000000    -1.219000000    -1.479000000
C    -4.699000000    -0.640000000    -0.218000000
C    -4.399000000    -1.470000000     0.834000000
H    -4.053000000    -2.484000000     0.652000000
C    -4.232000000    -0.886000000     2.138000000
O    -3.559000000    -1.633000000     3.208000000
C    -4.382000000     0.544000000     2.217000000
C    -4.225000000     1.372000000     3.492000000
H    -4.834000000     2.275000000     3.415000000
C    -2.730000000     1.815000000     3.662000000
C    -2.238000000     3.040000000     3.150000000
H    -2.922000000     3.709000000     2.635000000
H    -4.675000000     0.901000000     4.369000000
C    -4.678000000     1.411000000     1.093000000
H    -4.793000000     2.491000000     1.107000000
C    -4.869000000     0.771000000    -0.140000000
C    -5.283000000     1.581000000    -1.395000000
H    -5.801000000     2.513000000    -1.162000000
H    -5.875000000     0.968000000    -2.078000000
C    -4.021000000     1.993000000    -2.168000000
C    -3.413000000     3.198000000    -1.842000000
H    -3.852000000     3.795000000    -1.047000000
C    -3.426000000     1.179000000    -3.173000000
C    -2.212000000     1.533000000    -3.733000000
H    -1.728000000     0.923000000    -4.492000000
C    -1.693000000     2.800000000    -3.499000000
O    -0.507000000     3.216000000    -4.130000000
C     0.679000000     3.008000000    -3.401000000
C     1.685000000     2.297000000    -4.227000000
C     2.990000000     2.339000000    -3.744000000
H     3.071000000     2.952000000    -2.850000000
C     1.347000000     1.352000000    -5.173000000
H     0.308000000     1.155000000    -5.425000000
O     1.116000000     4.252000000    -2.787000000
H     0.418000000     2.359000000    -2.552000000
C    -2.304000000     3.608000000    -2.558000000
C    -1.657000000     4.940000000    -2.255000000
H    -2.457000000     5.592000000    -1.899000000
H    -1.303000000     5.442000000    -3.157000000
C    -0.587000000     4.737000000    -1.191000000
C    -0.926000000     4.890000000     0.163000000
H    -1.955000000     5.154000000     0.393000000
C     0.689000000     4.381000000    -1.445000000
C     1.667000000     4.169000000    -0.458000000
H     2.673000000     3.774000000    -0.576000000
C     1.346000000     4.313000000     0.918000000
O     2.312000000     3.958000000     1.877000000
C     1.964000000     2.745000000     2.581000000
C     3.111000000     1.830000000     2.731000000
C     3.869000000     1.599000000     1.555000000
H     3.669000000     2.109000000     0.616000000
C     3.284000000     1.062000000     3.910000000
H     2.756000000     1.372000000     4.809000000
O     1.277000000     2.869000000     3.854000000
H     1.235000000     2.247000000     1.925000000
C     0.032000000     4.696000000     1.211000000
C    -0.392000000     4.742000000     2.657000000
H    -1.125000000     5.541000000     2.789000000
H     0.416000000     5.086000000     3.305000000
C    -0.944000000     3.437000000     3.234000000
C    -0.031000000     2.593000000     3.809000000
C    -0.448000000     1.272000000     4.196000000
H     0.351000000     0.687000000     4.643000000
C    -1.800000000     0.885000000     4.075000000
O    -2.145000000    -0.383000000     4.535000000
C    -2.200000000    -1.347000000     3.495000000
H    -1.700000000    -0.930000000     2.608000000
C    -1.398000000    -2.566000000     3.877000000
C    -1.285000000    -3.509000000     2.915000000
H    -1.847000000    -3.322000000     2.004000000
C    -0.478000000    -2.605000000     4.928000000
H    -0.486000000    -1.816000000     5.676000000
C     0.406000000    -3.631000000     5.082000000
O     1.268000000    -3.606000000     6.145000000
C     0.407000000    -4.699000000     4.182000000
H     1.087000000    -5.547000000     4.223000000
C    -0.378000000    -4.585000000     3.070000000
O    -0.281000000    -5.628000000     2.099000000
C    -1.409000000    -5.960000000     1.427000000
C    -1.519000000    -5.662000000     0.049000000
H    -0.853000000    -4.903000000    -0.353000000
C    -2.291000000    -6.829000000     1.951000000
H    -2.236000000    -7.111000000     2.999000000
C    -3.284000000    -7.360000000     1.239000000
H    -3.977000000    -8.058000000     1.702000000
C    -3.384000000    -7.151000000    -0.145000000
H    -4.088000000    -7.711000000    -0.755000000
C    -2.549000000    -6.207000000    -0.732000000
O    -2.655000000    -5.931000000    -2.084000000
C    -2.333000000    -4.699000000    -2.652000000
C    -1.601000000    -4.666000000    -3.839000000
H    -1.100000000    -5.544000000    -4.240000000
C    -1.347000000    -3.444000000    -4.393000000
O    -0.614000000    -3.508000000    -5.560000000
C    -0.304000000    -2.472000000    -6.438000000
C     0.928000000    -1.840000000    -6.308000000
H     1.641000000    -2.067000000    -5.519000000
C    -1.226000000    -2.192000000    -7.412000000
H    -2.158000000    -2.750000000    -7.431000000
C    -0.964000000    -1.143000000    -8.309000000
H    -1.805000000    -0.758000000    -8.881000000
C     0.246000000    -0.403000000    -8.181000000
H     0.434000000     0.515000000    -8.733000000
C     1.146000000    -0.755000000    -7.179000000
O     2.239000000     0.065000000    -6.966000000
C     2.420000000     0.812000000    -5.892000000
C     3.769000000     0.931000000    -5.447000000
H     4.548000000     0.399000000    -5.985000000
C     4.056000000     1.726000000    -4.344000000
O     5.360000000     1.775000000    -4.000000000
C     5.725000000     2.035000000    -2.696000000
C     5.609000000     1.003000000    -1.743000000
H     5.234000000     0.014000000    -1.994000000
C     6.174000000     3.296000000    -2.316000000
H     6.213000000     4.095000000    -3.053000000
C     6.605000000     3.574000000    -1.025000000
H     7.058000000     4.528000000    -0.770000000
C     6.573000000     2.514000000    -0.065000000
H     6.929000000     2.647000000     0.954000000
C     6.036000000     1.239000000    -0.420000000
O     5.749000000     0.332000000     0.617000000
C     4.948000000     0.678000000     1.681000000
C     5.139000000     0.017000000     2.886000000
H     5.973000000    -0.679000000     2.915000000
C     4.321000000     0.193000000     3.979000000
O     4.713000000    -0.311000000     5.218000000
C     3.841000000    -1.009000000     6.045000000
C     4.040000000    -0.748000000     7.397000000
H     4.793000000    -0.045000000     7.744000000
C     3.257000000    -1.404000000     8.335000000
H     3.462000000    -1.267000000     9.394000000
C     2.296000000    -2.306000000     7.899000000
H     1.750000000    -2.838000000     8.673000000
C     2.087000000    -2.612000000     6.547000000
C     2.935000000    -2.019000000     5.654000000
H     2.797000000    -2.203000000     4.592000000
O     6.930000000    -6.422000000    -3.603000000
H     6.831000000    -5.505000000    -3.350000000
H     7.245000000    -6.857000000    -2.810000000
O     3.350000000    -7.171000000     2.686000000
H     3.074000000    -7.121000000     3.602000000
H     3.101000000    -6.324000000     2.315000000
O     8.356000000    -5.373000000    -0.163000000
H     9.160000000    -5.264000000    -0.671000000
H     8.135000000    -4.488000000     0.128000000
O     3.857000000    -7.859000000    -0.833000000
H     3.022000000    -7.630000000    -0.425000000
H     4.353000000    -7.041000000    -0.840000000
O     4.054000000    -6.213000000    -3.633000000
H     4.836000000    -6.011000000    -4.147000000
H     4.392000000    -6.528000000    -2.795000000
O     7.745000000    -1.128000000    -1.636000000
H     7.453000000    -0.738000000    -0.812000000
H     8.696000000    -1.192000000    -1.547000000
O     7.156000000    -0.805000000    -4.318000000
H     7.155000000    -0.832000000    -3.361000000
H     6.517000000    -0.127000000    -4.538000000
O     6.711000000    -3.907000000    -2.636000000
H     5.814000000    -3.577000000    -2.578000000
H     7.246000000    -3.214000000    -2.249000000
O     8.746000000    -2.919000000     0.951000000
H     9.655000000    -3.093000000     1.195000000
H     8.727000000    -1.983000000     0.748000000
O     5.028000000    -5.670000000    -1.076000000
H     5.874000000    -5.793000000    -0.646000000
H     4.839000000    -4.737000000    -0.970000000
O     4.278000000    -2.337000000    -5.230000000
H     3.739000000    -3.039000000    -4.867000000
H     4.414000000    -1.736000000    -4.498000000
O     1.383000000    -7.352000000     0.013000000
H     0.631000000    -7.567000000    -0.539000000
H     1.036000000    -6.744000000     0.665000000
O     6.519000000    -4.055000000    -5.721000000
H     5.788000000    -3.495000000    -5.461000000
H     7.096000000    -4.066000000    -4.958000000
O     2.581000000    -4.721000000     1.146000000
H     1.913000000    -4.717000000     0.460000000
H     3.266000000    -4.139000000     0.817000000
O     2.141000000    -4.886000000    -6.510000000
H     2.333000000    -4.549000000    -5.635000000
H     1.300000000    -4.489000000    -6.740000000
O     2.766000000    -4.101000000    -4.051000000
H     3.108000000    -3.516000000    -3.374000000
H     3.062000000    -4.972000000    -3.787000000
O     1.409000000    -7.516000000    -3.151000000
H     1.171000000    -8.168000000    -3.810000000
H     2.323000000    -7.306000000    -3.343000000
O     5.363000000    -4.435000000     4.113000000
H     5.432000000    -3.681000000     3.528000000
H     4.551000000    -4.869000000     3.851000000
O     5.801000000    -3.130000000     1.825000000
H     6.652000000    -2.922000000     1.438000000
H     5.194000000    -3.124000000     1.085000000
