201
-1222.61741
C    -4.850000000     1.004000000     1.755000000
H    -4.679000000     2.060000000     1.563000000
C    -3.816000000     0.356000000     2.480000000
C    -3.997000000    -1.042000000     2.803000000
H    -3.342000000    -1.466000000     3.560000000
C    -2.644000000     1.176000000     3.096000000
O    -2.962000000     2.573000000     3.314000000
H    -1.923000000     1.274000000     2.271000000
O    -2.067000000     0.707000000     4.318000000
C    -0.687000000     0.601000000     4.228000000
C    -0.176000000    -0.645000000     3.942000000
H    -0.981000000    -1.350000000     3.754000000
C     1.176000000    -0.896000000     4.118000000
O     1.531000000    -2.234000000     3.832000000
C     2.044000000     0.181000000     4.290000000
C     3.530000000    -0.053000000     4.188000000
H     4.027000000     0.753000000     4.732000000
C     4.050000000    -0.029000000     2.765000000
C     4.559000000     1.183000000     2.245000000
H     4.455000000     2.110000000     2.803000000
H     3.901000000    -0.897000000     4.773000000
C     1.554000000     1.507000000     4.551000000
H     2.204000000     2.365000000     4.705000000
C     0.179000000     1.678000000     4.529000000
C    -0.448000000     3.067000000     4.630000000
H     0.155000000     3.748000000     5.235000000
H    -1.383000000     2.883000000     5.164000000
C    -0.784000000     3.709000000     3.302000000
C     0.163000000     4.456000000     2.634000000
H     1.149000000     4.574000000     3.078000000
C    -2.085000000     3.513000000     2.793000000
C    -2.368000000     4.112000000     1.579000000
H    -3.362000000     3.868000000     1.212000000
C    -1.357000000     4.779000000     0.838000000
O    -1.608000000     4.867000000    -0.504000000
C    -1.072000000     3.885000000    -1.413000000
C    -2.059000000     3.427000000    -2.439000000
C    -1.637000000     2.761000000    -3.597000000
H    -0.606000000     2.506000000    -3.828000000
C    -3.446000000     3.555000000    -2.170000000
H    -3.764000000     4.061000000    -1.262000000
O     0.214000000     4.228000000    -2.037000000
H    -0.981000000     3.076000000    -0.674000000
C    -0.112000000     4.903000000     1.370000000
C     1.012000000     5.534000000     0.537000000
H     1.767000000     6.067000000     1.119000000
H     0.542000000     6.124000000    -0.253000000
C     1.796000000     4.403000000    -0.133000000
C     3.065000000     4.044000000     0.336000000
H     3.527000000     4.518000000     1.198000000
C     1.453000000     3.965000000    -1.391000000
C     2.217000000     3.118000000    -2.103000000
H     1.772000000     2.671000000    -2.988000000
C     3.492000000     2.712000000    -1.652000000
O     4.053000000     1.750000000    -2.411000000
C     3.900000000     0.378000000    -1.994000000
C     3.673000000    -0.610000000    -3.130000000
C     2.833000000    -0.376000000    -4.215000000
H     2.351000000     0.598000000    -4.248000000
C     4.237000000    -1.922000000    -3.009000000
H     4.704000000    -2.235000000    -2.078000000
O     5.104000000     0.033000000    -1.270000000
H     2.928000000     0.337000000    -1.481000000
C     3.935000000     3.106000000    -0.385000000
C     5.200000000     2.597000000     0.232000000
H     5.498000000     3.235000000     1.067000000
H     5.963000000     2.561000000    -0.548000000
C     5.002000000     1.230000000     0.887000000
C     4.918000000     0.064000000     0.124000000
C     4.601000000    -1.113000000     0.739000000
H     4.628000000    -2.041000000     0.174000000
C     3.964000000    -1.165000000     1.967000000
O     3.491000000    -2.391000000     2.471000000
C     2.040000000    -2.584000000     2.469000000
H     1.635000000    -1.778000000     1.840000000
C     1.657000000    -4.009000000     1.983000000
C     0.347000000    -4.233000000     2.173000000
H    -0.322000000    -3.633000000     2.783000000
C     2.480000000    -4.756000000     1.185000000
H     3.512000000    -4.453000000     1.025000000
C     1.931000000    -5.957000000     0.701000000
O     2.641000000    -6.827000000    -0.112000000
C     0.571000000    -6.276000000     0.890000000
H     0.023000000    -7.155000000     0.560000000
C    -0.184000000    -5.400000000     1.656000000
O    -1.500000000    -5.778000000     1.897000000
C    -2.374000000    -5.320000000     2.864000000
C    -3.300000000    -4.415000000     2.374000000
H    -3.268000000    -4.197000000     1.310000000
C    -2.367000000    -5.684000000     4.229000000
H    -1.695000000    -6.388000000     4.712000000
C    -3.308000000    -5.153000000     5.141000000
H    -3.305000000    -5.401000000     6.199000000
C    -4.298000000    -4.261000000     4.694000000
H    -4.968000000    -3.736000000     5.371000000
C    -4.246000000    -3.881000000     3.252000000
O    -5.291000000    -3.132000000     2.765000000
C    -5.108000000    -1.800000000     2.409000000
C    -6.071000000    -1.082000000     1.718000000
H    -7.018000000    -1.509000000     1.396000000
C    -5.913000000     0.239000000     1.383000000
O    -7.022000000     0.830000000     0.821000000
C    -7.084000000     2.027000000     0.088000000
C    -6.165000000     2.105000000    -1.011000000
H    -5.431000000     1.333000000    -1.225000000
C    -8.104000000     2.947000000     0.269000000
H    -8.761000000     2.921000000     1.135000000
C    -8.217000000     4.046000000    -0.537000000
H    -8.967000000     4.822000000    -0.408000000
C    -7.375000000     4.156000000    -1.661000000
H    -7.456000000     4.983000000    -2.361000000
C    -6.328000000     3.229000000    -1.883000000
O    -5.706000000     3.414000000    -2.988000000
C    -4.380000000     3.200000000    -3.166000000
C    -3.941000000     2.499000000    -4.248000000
H    -4.674000000     2.071000000    -4.927000000
C    -2.585000000     2.199000000    -4.439000000
O    -2.190000000     1.266000000    -5.391000000
C    -0.936000000     1.314000000    -5.973000000
C    -0.102000000     0.149000000    -5.915000000
H    -0.433000000    -0.767000000    -5.432000000
C    -0.395000000     2.439000000    -6.550000000
H    -0.918000000     3.393000000    -6.536000000
C     0.957000000     2.416000000    -6.924000000
H     1.346000000     3.349000000    -7.324000000
C     1.767000000     1.251000000    -6.954000000
H     2.762000000     1.333000000    -7.385000000
C     1.209000000     0.053000000    -6.455000000
O     2.000000000    -1.029000000    -6.377000000
C     2.736000000    -1.284000000    -5.235000000
C     3.438000000    -2.530000000    -5.125000000
H     3.212000000    -3.200000000    -5.951000000
C     4.057000000    -2.933000000    -3.954000000
O     4.408000000    -4.305000000    -3.835000000
C     4.635000000    -5.178000000    -2.702000000
C     5.844000000    -5.948000000    -2.623000000
H     6.708000000    -5.797000000    -3.265000000
C     5.932000000    -6.837000000    -1.547000000
H     6.870000000    -7.370000000    -1.418000000
C     4.870000000    -7.110000000    -0.711000000
H     4.999000000    -7.921000000     0.001000000
C     3.709000000    -6.464000000    -0.883000000
C     3.575000000    -5.501000000    -1.868000000
H     2.573000000    -5.109000000    -2.024000000
O    -2.754000000    -5.918000000    -4.894000000
H    -2.437000000    -5.037000000    -4.695000000
H    -2.050000000    -6.316000000    -5.405000000
O     2.378000000    -5.792000000    -7.031000000
H     3.270000000    -6.126000000    -7.126000000
H     2.274000000    -5.651000000    -6.090000000
O    -2.373000000    -5.962000000    -1.080000000
H    -3.207000000    -5.705000000    -1.471000000
H    -2.370000000    -5.540000000    -0.221000000
O    -4.152000000    -4.518000000    -8.282000000
H    -4.267000000    -3.726000000    -8.806000000
H    -3.801000000    -4.206000000    -7.448000000
O    -3.929000000    -3.058000000    -1.373000000
H    -3.456000000    -2.309000000    -1.009000000
H    -3.691000000    -3.064000000    -2.300000000
O     2.655000000    -3.260000000    -8.387000000
H     2.312000000    -3.984000000    -7.862000000
H     1.945000000    -3.046000000    -8.992000000
O    -0.807000000    -6.959000000    -6.566000000
H    -0.263000000    -6.173000000    -6.506000000
H    -0.900000000    -7.115000000    -7.505000000
O    -6.717000000    -4.688000000    -4.698000000
H    -6.120000000    -5.272000000    -4.230000000
H    -7.007000000    -4.061000000    -4.035000000
O    -4.903000000    -6.084000000    -2.905000000
H    -4.277000000    -6.166000000    -3.624000000
H    -5.001000000    -6.976000000    -2.570000000
O     0.367000000    -2.339000000    -9.352000000
H     0.255000000    -1.427000000    -9.084000000
H     0.043000000    -2.848000000    -8.610000000
O     1.049000000    -5.589000000    -4.245000000
H     0.842000000    -5.944000000    -3.381000000
H     0.318000000    -5.004000000    -4.445000000
O    -3.384000000    -2.662000000    -6.413000000
H    -3.487000000    -2.850000000    -5.480000000
H    -3.226000000    -1.719000000    -6.451000000
O    -6.423000000    -4.283000000    -1.663000000
H    -5.839000000    -3.621000000    -1.292000000
H    -5.882000000    -5.070000000    -1.727000000
O    -0.410000000    -7.317000000    -2.525000000
H    -0.876000000    -7.992000000    -3.018000000
H    -1.093000000    -6.870000000    -2.026000000
O    -5.800000000    -0.384000000    -6.620000000
H    -5.480000000    -0.811000000    -5.825000000
H    -5.021000000     0.018000000    -7.005000000
O    -3.828000000    -8.708000000    -5.713000000
H    -3.691000000    -7.894000000    -5.228000000
H    -3.711000000    -8.462000000    -6.631000000
O    -5.158000000    -1.527000000    -4.329000000
H    -4.265000000    -1.801000000    -4.119000000
H    -5.608000000    -1.508000000    -3.484000000
O    -3.316000000    -0.293000000    -8.151000000
H    -3.556000000    -1.066000000    -8.663000000
H    -2.553000000     0.066000000    -8.603000000
O    -0.834000000    -3.707000000    -7.138000000
H    -1.682000000    -3.314000000    -6.931000000
H    -0.426000000    -3.858000000    -6.285000000
