201
-1242.20120
C    -4.963000000     0.057000000     2.624000000
H    -5.224000000     1.096000000     2.441000000
C    -3.696000000    -0.198000000     3.177000000
C    -3.285000000    -1.518000000     3.591000000
H    -2.323000000    -1.778000000     4.026000000
C    -2.664000000     0.946000000     3.376000000
O    -3.280000000     2.234000000     3.367000000
H    -1.929000000     0.848000000     2.563000000
O    -1.835000000     0.811000000     4.526000000
C    -0.460000000     1.004000000     4.472000000
C     0.365000000    -0.083000000     4.469000000
H    -0.078000000    -1.074000000     4.413000000
C     1.719000000     0.062000000     4.329000000
O     2.552000000    -0.978000000     4.289000000
C     2.278000000     1.350000000     4.243000000
C     3.785000000     1.504000000     3.893000000
H     3.960000000     2.531000000     4.222000000
C     4.069000000     1.288000000     2.419000000
C     3.993000000     2.410000000     1.551000000
H     3.908000000     3.412000000     1.965000000
H     4.466000000     0.900000000     4.496000000
C     1.442000000     2.437000000     4.285000000
H     1.890000000     3.402000000     4.065000000
C     0.070000000     2.286000000     4.443000000
C    -0.857000000     3.442000000     4.431000000
H    -0.324000000     4.353000000     4.712000000
H    -1.742000000     3.398000000     5.068000000
C    -1.419000000     3.703000000     3.053000000
C    -0.729000000     4.481000000     2.107000000
H     0.180000000     4.908000000     2.522000000
C    -2.624000000     3.189000000     2.648000000
C    -3.089000000     3.436000000     1.368000000
H    -3.950000000     2.886000000     0.997000000
C    -2.340000000     4.052000000     0.405000000
O    -2.792000000     4.045000000    -0.921000000
C    -1.952000000     3.360000000    -1.902000000
C    -2.779000000     2.589000000    -2.916000000
C    -2.536000000     2.680000000    -4.255000000
H    -1.845000000     3.399000000    -4.685000000
C    -3.740000000     1.641000000    -2.480000000
H    -3.925000000     1.510000000    -1.417000000
O    -1.057000000     4.245000000    -2.628000000
H    -1.453000000     2.582000000    -1.306000000
C    -1.150000000     4.605000000     0.790000000
C    -0.344000000     5.464000000    -0.143000000
H     0.215000000     6.206000000     0.430000000
H    -0.995000000     6.009000000    -0.830000000
C     0.670000000     4.706000000    -1.010000000
C     2.048000000     4.541000000    -0.560000000
H     2.397000000     4.937000000     0.391000000
C     0.302000000     4.218000000    -2.245000000
C     1.237000000     3.447000000    -2.959000000
H     0.959000000     2.915000000    -3.865000000
C     2.514000000     3.148000000    -2.468000000
O     3.263000000     2.155000000    -3.110000000
C     3.103000000     0.966000000    -2.368000000
C     2.879000000    -0.284000000    -3.264000000
C     1.963000000    -0.154000000    -4.296000000
H     1.543000000     0.813000000    -4.558000000
C     3.445000000    -1.547000000    -3.004000000
H     4.189000000    -1.592000000    -2.212000000
O     4.267000000     0.639000000    -1.642000000
H     2.247000000     0.959000000    -1.678000000
C     2.935000000     3.800000000    -1.345000000
C     4.324000000     3.467000000    -0.761000000
H     4.710000000     4.323000000    -0.204000000
H     4.981000000     3.342000000    -1.624000000
C     4.245000000     2.290000000     0.164000000
C     4.337000000     0.989000000    -0.310000000
C     4.255000000    -0.112000000     0.493000000
H     4.267000000    -1.128000000     0.107000000
C     4.145000000     0.042000000     1.880000000
O     4.044000000    -1.168000000     2.559000000
C     2.726000000    -1.592000000     2.972000000
H     1.905000000    -1.128000000     2.406000000
C     2.734000000    -3.140000000     2.803000000
C     1.724000000    -3.861000000     3.482000000
H     1.052000000    -3.362000000     4.176000000
C     3.583000000    -3.895000000     1.905000000
H     4.297000000    -3.401000000     1.251000000
C     3.479000000    -5.269000000     1.832000000
O     4.163000000    -5.965000000     0.830000000
C     2.518000000    -5.985000000     2.560000000
H     2.371000000    -7.056000000     2.449000000
C     1.621000000    -5.242000000     3.414000000
O     0.524000000    -5.938000000     3.885000000
C    -0.664000000    -5.391000000     4.375000000
C    -1.654000000    -4.943000000     3.587000000
H    -1.729000000    -5.099000000     2.513000000
C    -0.718000000    -5.245000000     5.763000000
H     0.106000000    -5.617000000     6.365000000
C    -1.733000000    -4.527000000     6.378000000
H    -1.666000000    -4.272000000     7.433000000
C    -2.797000000    -4.064000000     5.553000000
H    -3.609000000    -3.475000000     5.971000000
C    -2.729000000    -4.324000000     4.181000000
O    -3.783000000    -3.885000000     3.438000000
C    -4.131000000    -2.602000000     3.148000000
C    -5.278000000    -2.345000000     2.409000000
H    -5.897000000    -3.159000000     2.039000000
C    -5.723000000    -1.044000000     2.241000000
O    -7.005000000    -0.832000000     1.659000000
C    -7.128000000    -0.409000000     0.289000000
C    -6.148000000    -0.729000000    -0.734000000
H    -5.398000000    -1.478000000    -0.491000000
C    -8.094000000     0.524000000     0.029000000
H    -8.751000000     0.867000000     0.824000000
C    -8.105000000     1.174000000    -1.144000000
H    -8.878000000     1.885000000    -1.424000000
C    -7.182000000     0.866000000    -2.164000000
H    -7.338000000     1.214000000    -3.182000000
C    -6.182000000    -0.035000000    -1.926000000
O    -5.266000000    -0.172000000    -2.935000000
C    -4.399000000     0.811000000    -3.398000000
C    -4.036000000     0.878000000    -4.731000000
H    -4.477000000     0.203000000    -5.461000000
C    -3.124000000     1.823000000    -5.217000000
O    -2.811000000     1.919000000    -6.563000000
C    -1.520000000     1.620000000    -6.977000000
C    -0.859000000     0.462000000    -6.425000000
H    -1.443000000    -0.227000000    -5.821000000
C    -0.797000000     2.432000000    -7.897000000
H    -1.238000000     3.294000000    -8.390000000
C     0.539000000     2.134000000    -8.152000000
H     1.009000000     2.684000000    -8.963000000
C     1.197000000     1.061000000    -7.488000000
H     2.259000000     0.868000000    -7.619000000
C     0.496000000     0.256000000    -6.708000000
O     1.012000000    -0.972000000    -6.377000000
C     1.697000000    -1.252000000    -5.135000000
C     2.261000000    -2.538000000    -4.838000000
H     2.077000000    -3.386000000    -5.492000000
C     3.142000000    -2.658000000    -3.786000000
O     3.831000000    -3.874000000    -3.471000000
C     4.666000000    -4.236000000    -2.410000000
C     6.108000000    -4.126000000    -2.421000000
H     6.619000000    -3.636000000    -3.246000000
C     6.842000000    -4.675000000    -1.410000000
H     7.921000000    -4.637000000    -1.539000000
C     6.237000000    -5.269000000    -0.311000000
H     6.869000000    -5.750000000     0.431000000
C     4.841000000    -5.350000000    -0.217000000
C     4.076000000    -4.799000000    -1.278000000
H     3.004000000    -4.980000000    -1.266000000
O     1.062000000    -8.589000000    -3.144000000
H     0.755000000    -7.691000000    -3.272000000
H     1.872000000    -8.496000000    -2.643000000
O    -2.655000000    -5.683000000    -0.029000000
H    -2.300000000    -5.335000000    -0.847000000
H    -2.231000000    -6.535000000     0.073000000
O    -5.293000000    -8.100000000    -4.730000000
H    -5.455000000    -7.360000000    -5.315000000
H    -6.086000000    -8.163000000    -4.198000000
O     1.325000000    -2.634000000    -8.509000000
H     0.687000000    -2.880000000    -9.180000000
H     0.816000000    -2.589000000    -7.700000000
O    -4.954000000    -3.954000000    -0.855000000
H    -5.139000000    -4.827000000    -0.508000000
H    -3.998000000    -3.897000000    -0.863000000
O    -1.101000000    -7.909000000     0.517000000
H    -1.421000000    -7.823000000     1.415000000
H    -1.534000000    -8.694000000     0.182000000
O    -3.196000000    -7.792000000    -2.461000000
H    -4.110000000    -7.542000000    -2.330000000
H    -2.875000000    -7.183000000    -3.126000000
O    -8.190000000    -3.199000000    -0.795000000
H    -7.627000000    -3.957000000    -0.953000000
H    -8.315000000    -3.187000000     0.153000000
O     0.089000000    -5.853000000    -3.538000000
H     0.551000000    -5.174000000    -4.030000000
H    -0.261000000    -5.397000000    -2.773000000
O    -5.099000000    -6.682000000     0.286000000
H    -4.988000000    -7.496000000     0.777000000
H    -4.273000000    -6.214000000     0.409000000
O    -3.771000000    -2.703000000    -8.232000000
H    -3.738000000    -2.660000000    -7.277000000
H    -4.419000000    -2.043000000    -8.480000000
O     0.766000000    -6.321000000    -0.400000000
H     0.242000000    -5.621000000    -0.790000000
H     0.130000000    -6.864000000     0.066000000
O    -1.448000000    -9.730000000    -2.840000000
H    -0.548000000    -9.503000000    -3.074000000
H    -1.956000000    -8.947000000    -3.053000000
O    -5.635000000    -3.528000000    -3.630000000
H    -5.174000000    -3.629000000    -2.798000000
H    -6.486000000    -3.162000000    -3.390000000
O     1.259000000    -5.810000000    -6.453000000
H     0.978000000    -5.992000000    -7.350000000
H     0.614000000    -5.185000000    -6.123000000
O    -3.444000000    -2.426000000    -5.117000000
H    -2.827000000    -2.934000000    -4.590000000
H    -4.273000000    -2.490000000    -4.643000000
O    -5.538000000    -5.425000000    -5.546000000
H    -4.593000000    -5.374000000    -5.693000000
H    -5.695000000    -4.852000000    -4.795000000
O    -2.632000000    -5.432000000    -4.559000000
H    -1.797000000    -5.799000000    -4.851000000
H    -2.387000000    -4.681000000    -4.018000000
O    -0.816000000    -3.252000000    -5.860000000
H    -0.660000000    -2.924000000    -4.974000000
H    -1.768000000    -3.224000000    -5.962000000
