201
-1238.48193
C    -3.930000000    -0.725000000     2.137000000
H    -4.040000000     0.158000000     1.513000000
C    -3.166000000    -0.695000000     3.251000000
C    -3.100000000    -1.871000000     4.014000000
H    -2.466000000    -1.844000000     4.897000000
C    -2.362000000     0.524000000     3.646000000
O    -3.073000000     1.802000000     3.465000000
H    -1.632000000     0.563000000     2.824000000
O    -1.658000000     0.435000000     4.909000000
C    -0.387000000     0.785000000     4.868000000
C     0.543000000    -0.203000000     4.883000000
H     0.189000000    -1.181000000     5.202000000
C     1.902000000     0.008000000     4.693000000
O     2.607000000    -1.193000000     4.475000000
C     2.351000000     1.224000000     4.396000000
C     3.767000000     1.402000000     3.932000000
H     4.007000000     2.397000000     4.313000000
C     4.048000000     1.347000000     2.436000000
C     3.957000000     2.448000000     1.625000000
H     3.807000000     3.436000000     2.054000000
H     4.458000000     0.750000000     4.469000000
C     1.471000000     2.338000000     4.401000000
H     1.872000000     3.327000000     4.193000000
C     0.072000000     2.103000000     4.563000000
C    -0.934000000     3.308000000     4.459000000
H    -0.399000000     4.137000000     4.926000000
H    -1.777000000     3.117000000     5.127000000
C    -1.332000000     3.476000000     3.003000000
C    -0.672000000     4.395000000     2.173000000
H     0.271000000     4.826000000     2.501000000
C    -2.452000000     2.754000000     2.615000000
C    -2.851000000     2.881000000     1.287000000
H    -3.705000000     2.273000000     0.999000000
C    -2.239000000     3.845000000     0.468000000
O    -2.733000000     3.917000000    -0.764000000
C    -1.886000000     3.406000000    -1.880000000
C    -2.686000000     2.753000000    -2.982000000
C    -2.283000000     2.705000000    -4.335000000
H    -1.304000000     3.066000000    -4.641000000
C    -3.924000000     2.207000000    -2.577000000
H    -4.178000000     2.226000000    -1.520000000
O    -1.022000000     4.438000000    -2.484000000
H    -1.312000000     2.564000000    -1.465000000
C    -1.136000000     4.595000000     0.859000000
C    -0.387000000     5.613000000    -0.026000000
H     0.085000000     6.314000000     0.666000000
H    -1.117000000     6.200000000    -0.587000000
C     0.670000000     5.055000000    -0.934000000
C     1.956000000     4.841000000    -0.436000000
H     2.242000000     5.366000000     0.472000000
C     0.309000000     4.517000000    -2.124000000
C     1.247000000     3.710000000    -2.877000000
H     1.000000000     3.152000000    -3.776000000
C     2.480000000     3.521000000    -2.420000000
O     3.286000000     2.558000000    -3.014000000
C     3.201000000     1.192000000    -2.358000000
C     2.788000000     0.134000000    -3.267000000
C     2.212000000     0.340000000    -4.560000000
H     2.229000000     1.356000000    -4.946000000
C     2.710000000    -1.158000000    -2.772000000
H     3.152000000    -1.483000000    -1.834000000
O     4.456000000     0.998000000    -1.676000000
H     2.490000000     1.066000000    -1.528000000
C     2.881000000     4.129000000    -1.189000000
C     4.214000000     3.772000000    -0.438000000
H     4.431000000     4.583000000     0.261000000
H     5.034000000     3.777000000    -1.159000000
C     4.108000000     2.385000000     0.293000000
C     4.354000000     1.171000000    -0.329000000
C     4.290000000    -0.004000000     0.476000000
H     4.403000000    -0.967000000    -0.015000000
C     4.149000000     0.067000000     1.839000000
O     4.193000000    -1.026000000     2.669000000
C     2.927000000    -1.556000000     3.139000000
H     2.116000000    -1.078000000     2.570000000
C     2.802000000    -3.091000000     2.871000000
C     1.770000000    -3.791000000     3.487000000
H     0.984000000    -3.300000000     4.055000000
C     3.596000000    -3.691000000     1.902000000
H     4.396000000    -3.107000000     1.455000000
C     3.363000000    -4.984000000     1.560000000
O     4.185000000    -5.700000000     0.682000000
C     2.405000000    -5.725000000     2.246000000
H     2.436000000    -6.793000000     2.042000000
C     1.651000000    -5.153000000     3.217000000
O     0.825000000    -5.987000000     3.900000000
C    -0.198000000    -5.435000000     4.710000000
C    -1.504000000    -5.348000000     4.185000000
H    -1.774000000    -5.789000000     3.228000000
C     0.124000000    -5.010000000     6.017000000
H     1.064000000    -5.197000000     6.531000000
C    -0.849000000    -4.311000000     6.699000000
H    -0.598000000    -3.992000000     7.707000000
C    -2.136000000    -4.127000000     6.202000000
H    -2.811000000    -3.697000000     6.938000000
C    -2.461000000    -4.605000000     4.868000000
O    -3.612000000    -4.277000000     4.258000000
C    -3.660000000    -3.047000000     3.591000000
C    -4.429000000    -3.075000000     2.411000000
H    -4.931000000    -3.986000000     2.095000000
C    -4.560000000    -1.911000000     1.654000000
O    -5.259000000    -1.992000000     0.473000000
C    -5.929000000    -0.976000000    -0.098000000
C    -5.563000000    -0.588000000    -1.412000000
H    -4.687000000    -0.930000000    -1.957000000
C    -7.015000000    -0.355000000     0.525000000
H    -7.282000000    -0.603000000     1.549000000
C    -7.762000000     0.652000000    -0.170000000
H    -8.590000000     1.063000000     0.401000000
C    -7.335000000     1.054000000    -1.434000000
H    -7.909000000     1.832000000    -1.930000000
C    -6.263000000     0.419000000    -2.028000000
O    -5.927000000     0.909000000    -3.287000000
C    -4.707000000     1.528000000    -3.519000000
C    -4.358000000     1.591000000    -4.844000000
H    -4.982000000     1.132000000    -5.606000000
C    -3.156000000     2.169000000    -5.291000000
O    -2.766000000     2.173000000    -6.604000000
C    -1.495000000     1.922000000    -7.110000000
C    -0.734000000     0.961000000    -6.499000000
H    -1.105000000     0.546000000    -5.565000000
C    -1.096000000     2.420000000    -8.378000000
H    -1.760000000     3.145000000    -8.842000000
C     0.097000000     2.036000000    -8.963000000
H     0.376000000     2.356000000    -9.963000000
C     0.893000000     1.082000000    -8.344000000
H     1.804000000     0.681000000    -8.780000000
C     0.518000000     0.583000000    -7.090000000
O     1.284000000    -0.462000000    -6.602000000
C     1.661000000    -0.644000000    -5.278000000
C     1.507000000    -1.898000000    -4.740000000
H     1.111000000    -2.685000000    -5.376000000
C     2.126000000    -2.216000000    -3.534000000
O     2.078000000    -3.515000000    -3.056000000
C     3.202000000    -4.201000000    -2.589000000
C     4.164000000    -4.731000000    -3.465000000
H     4.150000000    -4.344000000    -4.481000000
C     5.173000000    -5.465000000    -2.912000000
H     5.986000000    -5.722000000    -3.586000000
C     5.189000000    -5.806000000    -1.550000000
H     5.930000000    -6.496000000    -1.155000000
C     4.152000000    -5.397000000    -0.681000000
C     3.111000000    -4.646000000    -1.237000000
H     2.363000000    -4.220000000    -0.574000000
O    -3.575000000    -8.340000000    -4.322000000
H    -3.014000000    -9.111000000    -4.406000000
H    -2.978000000    -7.636000000    -4.070000000
O    -6.920000000    -3.547000000    -4.415000000
H    -7.470000000    -3.458000000    -3.637000000
H    -7.531000000    -3.473000000    -5.149000000
O    -4.519000000    -4.647000000    -4.545000000
H    -3.861000000    -3.998000000    -4.299000000
H    -5.351000000    -4.176000000    -4.497000000
O    -3.490000000    -8.085000000    -1.088000000
H    -3.301000000    -7.958000000    -2.018000000
H    -3.894000000    -8.951000000    -1.042000000
O    -5.991000000    -7.040000000    -2.609000000
H    -5.478000000    -6.907000000    -1.812000000
H    -5.678000000    -6.364000000    -3.210000000
O    -2.106000000    -7.480000000     1.318000000
H    -2.374000000    -7.772000000     0.447000000
H    -2.893000000    -7.572000000     1.855000000
O     2.454000000    -7.891000000    -0.987000000
H     2.603000000    -8.554000000    -0.314000000
H     1.541000000    -7.628000000    -0.866000000
O    -4.358000000    -5.500000000    -0.996000000
H    -3.710000000    -4.803000000    -1.095000000
H    -3.840000000    -6.287000000    -0.825000000
O    -7.037000000    -4.654000000    -0.585000000
H    -7.010000000    -4.642000000     0.372000000
H    -6.140000000    -4.860000000    -0.847000000
O    -1.937000000    -6.542000000    -3.112000000
H    -1.041000000    -6.818000000    -2.916000000
H    -2.007000000    -5.667000000    -2.730000000
O    -0.343000000    -2.837000000    -7.963000000
H    -0.676000000    -1.974000000    -7.717000000
H     0.551000000    -2.672000000    -8.264000000
O     0.732000000    -5.437000000    -7.014000000
H    -0.117000000    -5.413000000    -6.573000000
H     0.811000000    -4.577000000    -7.428000000
O    -0.202000000    -6.660000000    -0.710000000
H    -0.599000000    -7.244000000    -0.064000000
H    -0.857000000    -5.977000000    -0.850000000
O    -5.935000000    -2.574000000    -7.090000000
H    -6.288000000    -3.410000000    -7.394000000
H    -5.647000000    -2.746000000    -6.194000000
O     0.823000000    -6.476000000    -3.719000000
H     0.986000000    -5.941000000    -4.496000000
H     0.797000000    -5.848000000    -2.997000000
O    -4.175000000    -1.660000000    -5.067000000
H    -3.661000000    -2.225000000    -4.491000000
H    -4.096000000    -0.788000000    -4.680000000
O    -3.289000000    -2.459000000    -7.994000000
H    -3.796000000    -2.191000000    -7.228000000
H    -2.544000000    -2.938000000    -7.633000000
O    -5.651000000    -6.753000000    -5.699000000
H    -5.009000000    -6.044000000    -5.663000000
H    -5.190000000    -7.513000000    -5.344000000
O    -1.477000000    -4.339000000    -5.509000000
H    -1.671000000    -3.590000000    -4.945000000
H    -1.735000000    -5.102000000    -4.992000000
