201
-1244.16381
C    -4.844000000    -0.868000000     2.067000000
H    -5.164000000     0.070000000     1.619000000
C    -3.755000000    -0.889000000     2.905000000
C    -3.421000000    -2.094000000     3.480000000
H    -2.536000000    -2.143000000     4.110000000
C    -2.878000000     0.388000000     3.150000000
O    -3.645000000     1.567000000     2.898000000
H    -2.031000000     0.193000000     2.476000000
O    -2.277000000     0.352000000     4.468000000
C    -0.902000000     0.641000000     4.580000000
C     0.072000000    -0.378000000     4.668000000
H    -0.217000000    -1.406000000     4.868000000
C     1.451000000    -0.013000000     4.725000000
O     2.365000000    -1.048000000     4.696000000
C     1.830000000     1.299000000     4.395000000
C     3.269000000     1.654000000     4.172000000
H     3.454000000     2.633000000     4.618000000
C     3.561000000     1.522000000     2.665000000
C     3.681000000     2.676000000     1.848000000
H     3.498000000     3.661000000     2.269000000
H     3.917000000     0.995000000     4.755000000
C     0.854000000     2.262000000     4.256000000
H     1.184000000     3.280000000     4.067000000
C    -0.523000000     1.968000000     4.390000000
C    -1.488000000     3.087000000     4.334000000
H    -1.002000000     3.937000000     4.818000000
H    -2.261000000     2.855000000     5.069000000
C    -2.005000000     3.375000000     2.912000000
C    -1.273000000     4.295000000     2.169000000
H    -0.438000000     4.860000000     2.575000000
C    -3.052000000     2.654000000     2.318000000
C    -3.368000000     2.823000000     0.971000000
H    -4.126000000     2.236000000     0.458000000
C    -2.580000000     3.705000000     0.171000000
O    -2.897000000     3.791000000    -1.118000000
C    -1.949000000     3.236000000    -2.029000000
C    -2.722000000     2.521000000    -3.152000000
C    -2.378000000     2.618000000    -4.512000000
H    -1.596000000     3.326000000    -4.772000000
C    -3.755000000     1.609000000    -2.823000000
H    -3.951000000     1.463000000    -1.763000000
O    -1.025000000     4.262000000    -2.566000000
H    -1.335000000     2.509000000    -1.477000000
C    -1.592000000     4.493000000     0.793000000
C    -0.733000000     5.526000000     0.028000000
H    -0.454000000     6.344000000     0.695000000
H    -1.457000000     5.986000000    -0.647000000
C     0.391000000     4.869000000    -0.768000000
C     1.644000000     4.802000000    -0.216000000
H     1.843000000     5.194000000     0.779000000
C     0.222000000     4.304000000    -2.039000000
C     1.206000000     3.567000000    -2.661000000
H     0.911000000     3.079000000    -3.587000000
C     2.457000000     3.523000000    -2.096000000
O     3.422000000     2.734000000    -2.691000000
C     3.365000000     1.369000000    -2.177000000
C     3.151000000     0.283000000    -3.221000000
C     2.754000000     0.598000000    -4.503000000
H     2.639000000     1.597000000    -4.915000000
C     3.272000000    -1.053000000    -2.839000000
H     3.484000000    -1.258000000    -1.793000000
O     4.556000000     1.075000000    -1.375000000
H     2.509000000     1.174000000    -1.514000000
C     2.696000000     4.099000000    -0.894000000
C     4.042000000     3.858000000    -0.290000000
H     4.334000000     4.741000000     0.282000000
H     4.793000000     3.853000000    -1.083000000
C     4.042000000     2.550000000     0.509000000
C     4.365000000     1.259000000     0.001000000
C     4.454000000     0.141000000     0.855000000
H     4.715000000    -0.850000000     0.494000000
C     3.988000000     0.294000000     2.188000000
O     4.075000000    -0.822000000     2.975000000
C     2.823000000    -1.522000000     3.396000000
H     2.057000000    -1.108000000     2.723000000
C     2.882000000    -3.015000000     3.188000000
C     1.957000000    -3.783000000     3.787000000
H     1.355000000    -3.358000000     4.586000000
C     3.745000000    -3.513000000     2.206000000
H     4.431000000    -2.809000000     1.740000000
C     3.644000000    -4.862000000     1.828000000
O     4.425000000    -5.405000000     0.834000000
C     2.696000000    -5.623000000     2.439000000
H     2.532000000    -6.680000000     2.246000000
C     1.817000000    -5.123000000     3.415000000
O     0.862000000    -5.899000000     3.985000000
C    -0.255000000    -5.371000000     4.587000000
C    -1.430000000    -5.204000000     3.899000000
H    -1.518000000    -5.534000000     2.867000000
C    -0.226000000    -5.090000000     5.945000000
H     0.718000000    -5.290000000     6.444000000
C    -1.436000000    -4.755000000     6.563000000
H    -1.340000000    -4.642000000     7.640000000
C    -2.575000000    -4.460000000     5.888000000
H    -3.462000000    -4.074000000     6.383000000
C    -2.573000000    -4.765000000     4.542000000
O    -3.698000000    -4.534000000     3.789000000
C    -4.113000000    -3.268000000     3.359000000
C    -5.129000000    -3.267000000     2.410000000
H    -5.722000000    -4.115000000     2.078000000
C    -5.556000000    -2.047000000     1.860000000
O    -6.543000000    -2.135000000     0.898000000
C    -6.670000000    -1.384000000    -0.194000000
C    -5.809000000    -1.422000000    -1.263000000
H    -5.014000000    -2.163000000    -1.232000000
C    -7.708000000    -0.477000000    -0.287000000
H    -8.532000000    -0.364000000     0.413000000
C    -7.893000000     0.346000000    -1.392000000
H    -8.715000000     1.048000000    -1.510000000
C    -6.889000000     0.418000000    -2.363000000
H    -6.976000000     0.955000000    -3.304000000
C    -5.782000000    -0.402000000    -2.209000000
O    -4.950000000    -0.455000000    -3.311000000
C    -4.250000000     0.667000000    -3.766000000
C    -3.793000000     0.771000000    -5.107000000
H    -4.047000000    -0.024000000    -5.803000000
C    -2.881000000     1.791000000    -5.503000000
O    -2.380000000     1.834000000    -6.768000000
C    -1.017000000     1.920000000    -7.055000000
C    -0.209000000     0.821000000    -6.789000000
H    -0.667000000    -0.086000000    -6.404000000
C    -0.470000000     2.969000000    -7.800000000
H    -1.046000000     3.884000000    -7.909000000
C     0.921000000     2.971000000    -8.062000000
H     1.367000000     3.897000000    -8.416000000
C     1.720000000     1.973000000    -7.598000000
H     2.797000000     2.095000000    -7.681000000
C     1.124000000     0.878000000    -6.961000000
O     1.958000000    -0.138000000    -6.681000000
C     2.359000000    -0.423000000    -5.374000000
C     2.585000000    -1.778000000    -5.044000000
H     2.319000000    -2.605000000    -5.697000000
C     3.030000000    -2.083000000    -3.760000000
O     3.107000000    -3.431000000    -3.335000000
C     4.090000000    -3.890000000    -2.511000000
C     5.437000000    -3.866000000    -2.927000000
H     5.713000000    -3.529000000    -3.923000000
C     6.438000000    -4.346000000    -2.069000000
H     7.457000000    -4.358000000    -2.446000000
C     6.110000000    -4.752000000    -0.804000000
H     6.897000000    -5.114000000    -0.147000000
C     4.719000000    -4.758000000    -0.356000000
C     3.696000000    -4.398000000    -1.264000000
H     2.665000000    -4.600000000    -0.985000000
O    -4.148000000    -3.651000000    -5.124000000
H    -4.737000000    -4.223000000    -4.631000000
H    -3.455000000    -3.429000000    -4.502000000
O    -5.139000000    -7.708000000    -1.528000000
H    -4.475000000    -7.070000000    -1.791000000
H    -4.665000000    -8.338000000    -0.986000000
O    -4.215000000    -6.638000000     1.426000000
H    -5.121000000    -6.884000000     1.614000000
H    -3.878000000    -6.310000000     2.259000000
O    -0.181000000    -9.097000000     1.113000000
H    -0.108000000    -9.103000000     2.067000000
H    -0.669000000    -8.297000000     0.915000000
O    -4.572000000    -4.690000000    -0.811000000
H    -3.636000000    -4.683000000    -1.013000000
H    -4.631000000    -5.134000000     0.034000000
O    -6.110000000    -4.838000000    -3.553000000
H    -5.945000000    -5.733000000    -3.849000000
H    -5.974000000    -4.870000000    -2.606000000
O     1.618000000    -8.424000000    -0.737000000
H     1.106000000    -7.691000000    -1.079000000
H     1.053000000    -8.824000000    -0.078000000
O    -2.873000000    -6.761000000    -2.714000000
H    -2.224000000    -7.408000000    -2.435000000
H    -2.585000000    -5.944000000    -2.308000000
O     1.936000000    -6.513000000    -5.013000000
H     1.664000000    -5.630000000    -5.260000000
H     2.390000000    -6.849000000    -5.786000000
O    -4.961000000    -7.203000000    -4.528000000
H    -4.223000000    -6.968000000    -3.965000000
H    -4.559000000    -7.431000000    -5.366000000
O    -1.416000000    -6.766000000     0.245000000
H    -2.349000000    -6.690000000     0.444000000
H    -1.255000000    -6.088000000    -0.411000000
O     0.561000000    -8.894000000    -4.812000000
H     1.016000000    -8.054000000    -4.874000000
H     0.237000000    -8.925000000    -3.912000000
O    -6.139000000    -1.834000000    -6.108000000
H    -5.386000000    -2.292000000    -5.735000000
H    -6.463000000    -1.286000000    -5.393000000
O    -7.071000000    -4.886000000     0.060000000
H    -6.405000000    -4.435000000    -0.460000000
H    -7.872000000    -4.385000000    -0.089000000
O     0.376000000    -6.331000000    -2.665000000
H     0.486000000    -5.959000000    -3.541000000
H    -0.239000000    -5.741000000    -2.230000000
O    -1.261000000    -6.516000000    -7.333000000
H    -0.608000000    -5.820000000    -7.266000000
H    -1.314000000    -6.706000000    -8.270000000
O    -1.663000000    -2.023000000    -5.437000000
H    -2.354000000    -2.504000000    -5.892000000
H    -1.640000000    -2.407000000    -4.561000000
O    -2.507000000    -2.041000000    -8.275000000
H    -1.969000000    -1.794000000    -7.523000000
H    -3.364000000    -1.656000000    -8.093000000
O    -0.114000000    -4.506000000    -4.849000000
H     0.193000000    -3.844000000    -5.469000000
H    -0.570000000    -4.007000000    -4.171000000
