201
-1237.32451
C    -5.182000000     1.180000000     1.557000000
H    -5.253000000     2.240000000     1.323000000
C    -4.073000000     0.756000000     2.340000000
C    -3.997000000    -0.601000000     2.738000000
H    -3.191000000    -0.956000000     3.375000000
C    -2.931000000     1.717000000     2.661000000
O    -3.246000000     3.052000000     2.252000000
H    -2.151000000     1.359000000     1.973000000
O    -2.422000000     1.820000000     3.991000000
C    -1.074000000     1.710000000     4.147000000
C    -0.572000000     0.462000000     4.489000000
H    -1.248000000    -0.373000000     4.656000000
C     0.788000000     0.288000000     4.567000000
O     1.259000000    -0.967000000     4.774000000
C     1.645000000     1.403000000     4.504000000
C     3.154000000     1.202000000     4.543000000
H     3.743000000     2.056000000     4.881000000
C     3.658000000     0.811000000     3.128000000
C     4.047000000     1.848000000     2.246000000
H     4.019000000     2.907000000     2.490000000
H     3.372000000     0.404000000     5.256000000
C     1.085000000     2.664000000     4.175000000
H     1.712000000     3.548000000     4.091000000
C    -0.299000000     2.859000000     4.032000000
C    -0.916000000     4.192000000     3.637000000
H    -0.183000000     4.969000000     3.863000000
H    -1.729000000     4.464000000     4.313000000
C    -1.116000000     4.256000000     2.146000000
C    -0.199000000     4.904000000     1.358000000
H     0.627000000     5.472000000     1.779000000
C    -2.263000000     3.698000000     1.532000000
C    -2.331000000     3.674000000     0.127000000
H    -3.217000000     3.406000000    -0.443000000
C    -1.461000000     4.396000000    -0.645000000
O    -1.570000000     4.223000000    -2.000000000
C    -0.782000000     3.146000000    -2.499000000
C    -1.583000000     2.261000000    -3.471000000
C    -1.018000000     1.434000000    -4.391000000
H     0.061000000     1.457000000    -4.522000000
C    -2.979000000     2.263000000    -3.365000000
H    -3.521000000     2.933000000    -2.703000000
O     0.353000000     3.667000000    -3.181000000
H    -0.481000000     2.400000000    -1.748000000
C    -0.258000000     4.739000000    -0.022000000
C     0.851000000     5.412000000    -0.919000000
H     1.327000000     6.190000000    -0.318000000
H     0.342000000     5.933000000    -1.732000000
C     1.843000000     4.352000000    -1.419000000
C     2.789000000     3.971000000    -0.539000000
H     2.991000000     4.555000000     0.355000000
C     1.573000000     3.575000000    -2.544000000
C     2.497000000     2.628000000    -2.886000000
H     2.351000000     1.980000000    -3.746000000
C     3.547000000     2.270000000    -2.073000000
O     4.335000000     1.265000000    -2.426000000
C     4.084000000    -0.010000000    -1.702000000
C     4.261000000    -1.143000000    -2.751000000
C     4.140000000    -0.996000000    -4.130000000
H     4.028000000     0.023000000    -4.493000000
C     4.360000000    -2.462000000    -2.239000000
H     4.340000000    -2.602000000    -1.161000000
O     5.063000000    -0.207000000    -0.670000000
H     3.037000000    -0.104000000    -1.376000000
C     3.658000000     2.961000000    -0.894000000
C     4.846000000     2.614000000     0.069000000
H     5.061000000     3.534000000     0.616000000
H     5.711000000     2.391000000    -0.560000000
C     4.507000000     1.504000000     0.983000000
C     4.642000000     0.187000000     0.603000000
C     4.325000000    -0.818000000     1.526000000
H     4.443000000    -1.881000000     1.331000000
C     3.717000000    -0.523000000     2.708000000
O     3.179000000    -1.546000000     3.410000000
C     1.745000000    -1.630000000     3.563000000
H     1.316000000    -1.119000000     2.688000000
C     1.321000000    -3.077000000     3.447000000
C     0.240000000    -3.521000000     4.240000000
H    -0.161000000    -2.945000000     5.070000000
C     1.885000000    -3.872000000     2.487000000
H     2.665000000    -3.577000000     1.790000000
C     1.256000000    -5.103000000     2.236000000
O     1.515000000    -5.850000000     1.096000000
C     0.162000000    -5.581000000     3.036000000
H    -0.240000000    -6.545000000     2.736000000
C    -0.338000000    -4.763000000     4.025000000
O    -1.352000000    -5.155000000     4.831000000
C    -2.623000000    -4.524000000     4.855000000
C    -3.150000000    -4.159000000     3.643000000
H    -2.593000000    -4.333000000     2.726000000
C    -3.234000000    -4.171000000     6.038000000
H    -2.689000000    -4.369000000     6.958000000
C    -4.423000000    -3.402000000     6.032000000
H    -4.831000000    -3.052000000     6.977000000
C    -5.072000000    -3.200000000     4.795000000
H    -5.915000000    -2.515000000     4.768000000
C    -4.377000000    -3.420000000     3.630000000
O    -4.835000000    -2.875000000     2.498000000
C    -4.990000000    -1.455000000     2.283000000
C    -6.044000000    -1.040000000     1.497000000
H    -6.696000000    -1.817000000     1.107000000
C    -6.159000000     0.289000000     1.172000000
O    -7.151000000     0.676000000     0.271000000
C    -7.012000000     1.438000000    -0.872000000
C    -6.151000000     0.935000000    -1.935000000
H    -5.531000000     0.043000000    -1.949000000
C    -7.530000000     2.728000000    -0.849000000
H    -7.998000000     3.154000000     0.036000000
C    -7.331000000     3.483000000    -1.990000000
H    -7.838000000     4.438000000    -2.099000000
C    -6.555000000     3.059000000    -3.075000000
H    -6.354000000     3.741000000    -3.897000000
C    -5.989000000     1.753000000    -3.065000000
O    -5.222000000     1.498000000    -4.178000000
C    -3.790000000     1.444000000    -4.200000000
C    -3.141000000     0.568000000    -5.099000000
H    -3.697000000    -0.165000000    -5.679000000
C    -1.758000000     0.576000000    -5.214000000
O    -1.154000000    -0.485000000    -5.972000000
C     0.110000000    -0.405000000    -6.542000000
C     1.170000000    -1.128000000    -6.027000000
H     1.095000000    -1.618000000    -5.059000000
C     0.310000000     0.398000000    -7.611000000
H    -0.591000000     0.946000000    -7.876000000
C     1.527000000     0.466000000    -8.262000000
H     1.725000000     1.131000000    -9.099000000
C     2.582000000    -0.313000000    -7.771000000
H     3.485000000    -0.285000000    -8.374000000
C     2.421000000    -1.204000000    -6.687000000
O     3.522000000    -1.972000000    -6.275000000
C     3.954000000    -2.117000000    -4.941000000
C     4.273000000    -3.393000000    -4.481000000
H     4.295000000    -4.249000000    -5.151000000
C     4.473000000    -3.540000000    -3.071000000
O     4.542000000    -4.878000000    -2.592000000
C     4.294000000    -5.162000000    -1.236000000
C     5.354000000    -5.341000000    -0.407000000
H     6.359000000    -5.101000000    -0.744000000
C     5.153000000    -5.814000000     0.897000000
H     6.029000000    -5.981000000     1.519000000
C     3.898000000    -6.008000000     1.385000000
H     3.833000000    -6.295000000     2.431000000
C     2.809000000    -5.811000000     0.591000000
C     2.985000000    -5.448000000    -0.751000000
H     2.073000000    -5.310000000    -1.327000000
O    -4.497000000    -9.550000000    -0.179000000
H    -3.805000000    -9.216000000    -0.751000000
H    -4.832000000   -10.322000000    -0.634000000
O    -2.262000000    -5.170000000    -6.384000000
H    -1.667000000    -5.911000000    -6.278000000
H    -3.035000000    -5.542000000    -6.808000000
O    -0.649000000    -6.753000000    -3.378000000
H    -0.946000000    -6.752000000    -4.288000000
H    -1.117000000    -6.023000000    -2.973000000
O     2.512000000    -6.583000000    -4.654000000
H     3.029000000    -5.864000000    -5.017000000
H     2.174000000    -7.045000000    -5.421000000
O    -5.507000000    -5.331000000    -5.630000000
H    -5.789000000    -4.601000000    -6.182000000
H    -4.873000000    -4.943000000    -5.027000000
O    -4.875000000    -6.329000000    -2.654000000
H    -4.554000000    -5.781000000    -3.371000000
H    -5.067000000    -5.711000000    -1.948000000
O    -6.269000000    -1.211000000    -4.414000000
H    -5.861000000    -1.561000000    -3.622000000
H    -6.191000000    -0.261000000    -4.325000000
O    -5.016000000    -4.736000000     0.087000000
H    -5.293000000    -3.864000000    -0.193000000
H    -4.062000000    -4.723000000     0.000000000
O    -2.157000000    -8.241000000     3.213000000
H    -2.503000000    -7.584000000     2.609000000
H    -2.383000000    -9.079000000     2.810000000
O    -2.331000000    -6.597000000     0.743000000
H    -1.507000000    -6.886000000     0.350000000
H    -2.388000000    -5.667000000     0.524000000
O    -6.301000000    -7.677000000    -4.302000000
H    -5.867000000    -7.343000000    -3.518000000
H    -6.023000000    -7.085000000    -5.001000000
O    -0.166000000    -8.150000000    -1.327000000
H    -0.300000000    -7.554000000    -2.065000000
H     0.427000000    -8.820000000    -1.666000000
O     1.729000000    -8.845000000     0.984000000
H     1.069000000    -8.213000000     0.700000000
H     2.176000000    -9.105000000     0.178000000
O    -3.422000000    -4.261000000    -4.233000000
H    -2.710000000    -4.040000000    -3.633000000
H    -2.993000000    -4.384000000    -5.080000000
O    -3.388000000    -8.399000000    -2.363000000
H    -3.883000000    -7.582000000    -2.425000000
H    -2.472000000    -8.123000000    -2.341000000
O     0.373000000    -4.244000000    -6.361000000
H    -0.560000000    -4.262000000    -6.149000000
H     0.801000000    -4.004000000    -5.538000000
O     1.129000000    -4.351000000    -3.710000000
H     1.543000000    -5.212000000    -3.660000000
H     0.475000000    -4.358000000    -3.011000000
O    -5.646000000    -7.098000000     1.260000000
H    -5.236000000    -7.832000000     0.803000000
H    -5.329000000    -6.321000000     0.799000000
O    -4.327000000    -2.139000000    -2.512000000
H    -4.042000000    -2.549000000    -3.328000000
H    -3.595000000    -2.268000000    -1.909000000
