201
-1263.40779
C    -5.026000000     2.781000000     0.715000000
H    -4.849000000     3.664000000     0.106000000
C    -4.117000000     2.462000000     1.720000000
C    -4.495000000     1.471000000     2.581000000
H    -3.766000000     1.308000000     3.371000000
C    -2.707000000     3.024000000     1.837000000
O    -2.495000000     4.258000000     1.081000000
H    -2.022000000     2.246000000     1.470000000
O    -2.338000000     3.200000000     3.189000000
C    -1.033000000     2.835000000     3.499000000
C    -0.887000000     1.606000000     4.134000000
H    -1.740000000     1.058000000     4.527000000
C     0.359000000     1.085000000     4.415000000
O     0.516000000    -0.193000000     4.879000000
C     1.461000000     1.852000000     4.103000000
C     2.904000000     1.418000000     4.368000000
H     3.472000000     2.343000000     4.490000000
C     3.546000000     0.570000000     3.321000000
C     4.258000000     1.132000000     2.300000000
H     4.388000000     2.211000000     2.319000000
H     3.055000000     0.922000000     5.329000000
C     1.314000000     3.099000000     3.537000000
H     2.208000000     3.668000000     3.292000000
C     0.089000000     3.538000000     3.164000000
C    -0.094000000     4.904000000     2.552000000
H     0.634000000     5.647000000     2.885000000
H    -1.009000000     5.393000000     2.893000000
C    -0.122000000     4.819000000     1.040000000
C     1.088000000     4.848000000     0.371000000
H     2.025000000     5.053000000     0.882000000
C    -1.313000000     4.507000000     0.360000000
C    -1.273000000     4.299000000    -1.006000000
H    -2.178000000     3.985000000    -1.521000000
C     0.008000000     4.374000000    -1.643000000
O     0.010000000     3.982000000    -2.948000000
C     0.456000000     2.602000000    -3.196000000
C    -0.462000000     1.941000000    -4.258000000
C     0.070000000     1.054000000    -5.170000000
H     1.150000000     0.950000000    -5.242000000
C    -1.876000000     1.990000000    -4.009000000
H    -2.359000000     2.696000000    -3.339000000
O     1.795000000     2.638000000    -3.657000000
H     0.342000000     2.013000000    -2.274000000
C     1.189000000     4.650000000    -0.980000000
C     2.587000000     4.678000000    -1.637000000
H     3.228000000     5.299000000    -1.007000000
H     2.420000000     5.166000000    -2.600000000
C     3.152000000     3.249000000    -1.765000000
C     4.086000000     2.835000000    -0.791000000
H     4.433000000     3.468000000     0.021000000
C     2.755000000     2.317000000    -2.734000000
C     3.415000000     1.115000000    -2.877000000
H     3.017000000     0.496000000    -3.676000000
C     4.415000000     0.765000000    -2.051000000
O     4.781000000    -0.569000000    -2.016000000
C     3.993000000    -1.368000000    -1.094000000
C     3.512000000    -2.641000000    -1.830000000
C     3.350000000    -2.692000000    -3.225000000
H     3.654000000    -1.842000000    -3.831000000
C     3.189000000    -3.849000000    -1.131000000
H     3.305000000    -3.857000000    -0.050000000
O     4.683000000    -1.612000000     0.106000000
H     3.057000000    -0.840000000    -0.859000000
C     4.776000000     1.636000000    -0.973000000
C     5.597000000     1.147000000     0.157000000
H     6.115000000     2.027000000     0.544000000
H     6.310000000     0.421000000    -0.241000000
C     4.799000000     0.435000000     1.269000000
C     4.441000000    -0.888000000     1.230000000
C     3.667000000    -1.477000000     2.198000000
H     3.485000000    -2.536000000     2.038000000
C     3.233000000    -0.781000000     3.306000000
O     2.378000000    -1.394000000     4.184000000
C     0.968000000    -1.175000000     3.971000000
H     0.784000000    -0.766000000     2.967000000
C     0.090000000    -2.451000000     4.103000000
C    -1.167000000    -2.385000000     4.701000000
H    -1.466000000    -1.469000000     5.205000000
C     0.436000000    -3.585000000     3.445000000
H     1.379000000    -3.665000000     2.910000000
C    -0.325000000    -4.759000000     3.516000000
O     0.072000000    -6.016000000     3.027000000
C    -1.640000000    -4.691000000     4.124000000
H    -2.439000000    -5.425000000     4.185000000
C    -2.038000000    -3.481000000     4.703000000
O    -3.130000000    -3.523000000     5.536000000
C    -3.950000000    -2.450000000     5.439000000
C    -4.406000000    -1.853000000     4.282000000
H    -4.100000000    -2.200000000     3.298000000
C    -4.542000000    -2.009000000     6.630000000
H    -4.258000000    -2.510000000     7.551000000
C    -5.382000000    -0.894000000     6.627000000
H    -5.846000000    -0.602000000     7.566000000
C    -5.766000000    -0.315000000     5.444000000
H    -6.524000000     0.464000000     5.471000000
C    -5.225000000    -0.763000000     4.261000000
O    -5.811000000    -0.531000000     3.022000000
C    -5.606000000     0.721000000     2.371000000
C    -6.395000000     0.915000000     1.252000000
H    -7.245000000     0.280000000     1.017000000
C    -6.104000000     2.029000000     0.425000000
O    -6.696000000     2.061000000    -0.845000000
C    -6.124000000     2.498000000    -1.995000000
C    -5.225000000     1.669000000    -2.673000000
H    -4.987000000     0.659000000    -2.347000000
C    -6.578000000     3.664000000    -2.666000000
H    -7.428000000     4.197000000    -2.249000000
C    -6.035000000     4.001000000    -3.906000000
H    -6.418000000     4.847000000    -4.470000000
C    -5.073000000     3.265000000    -4.529000000
H    -4.728000000     3.573000000    -5.513000000
C    -4.757000000     2.075000000    -3.929000000
O    -4.014000000     1.137000000    -4.624000000
C    -2.713000000     1.181000000    -4.818000000
C    -2.124000000     0.377000000    -5.791000000
H    -2.780000000    -0.266000000    -6.372000000
C    -0.759000000     0.270000000    -5.989000000
O    -0.308000000    -0.600000000    -6.968000000
C     0.973000000    -1.148000000    -6.940000000
C     1.223000000    -2.238000000    -6.043000000
H     0.386000000    -2.490000000    -5.396000000
C     1.921000000    -0.687000000    -7.790000000
H     1.742000000     0.244000000    -8.321000000
C     3.107000000    -1.358000000    -7.882000000
H     3.738000000    -0.964000000    -8.674000000
C     3.372000000    -2.447000000    -7.046000000
H     4.292000000    -3.025000000    -7.080000000
C     2.467000000    -2.803000000    -6.037000000
O     2.846000000    -3.844000000    -5.204000000
C     2.922000000    -3.855000000    -3.866000000
C     2.640000000    -5.034000000    -3.188000000
H     2.350000000    -5.976000000    -3.646000000
C     2.757000000    -5.025000000    -1.809000000
O     2.425000000    -6.167000000    -1.135000000
C     2.344000000    -6.414000000     0.165000000
C     3.448000000    -7.006000000     0.772000000
H     4.365000000    -7.189000000     0.218000000
C     3.409000000    -7.238000000     2.115000000
H     4.278000000    -7.640000000     2.630000000
C     2.309000000    -6.862000000     2.867000000
H     2.251000000    -6.966000000     3.948000000
C     1.206000000    -6.274000000     2.324000000
C     1.245000000    -6.045000000     0.965000000
H     0.364000000    -5.625000000     0.486000000
O    -3.647000000    -7.594000000     4.372000000
H    -3.857000000    -6.907000000     3.739000000
H    -4.044000000    -8.385000000     4.008000000
O    -5.064000000    -5.200000000    -5.019000000
H    -5.239000000    -6.140000000    -4.964000000
H    -4.886000000    -5.044000000    -5.947000000
O    -3.143000000    -7.430000000    -5.317000000
H    -2.855000000    -7.373000000    -4.406000000
H    -3.213000000    -8.370000000    -5.488000000
O    -2.423000000    -3.894000000    -4.772000000
H    -2.020000000    -4.253000000    -3.981000000
H    -3.244000000    -4.378000000    -4.864000000
O    -4.562000000    -5.896000000    -1.794000000
H    -3.860000000    -5.471000000    -1.300000000
H    -4.814000000    -5.252000000    -2.455000000
O    -0.199000000    -9.505000000     0.106000000
H     0.744000000    -9.388000000    -0.009000000
H    -0.504000000    -8.664000000     0.448000000
O     0.696000000    -8.032000000    -2.338000000
H     0.525000000    -8.767000000    -1.749000000
H     1.574000000    -7.735000000    -2.101000000
O    -5.159000000    -3.190000000    -3.209000000
H    -5.290000000    -3.913000000    -3.823000000
H    -4.794000000    -2.485000000    -3.742000000
O    -4.825000000    -7.392000000     1.055000000
H    -4.867000000    -6.440000000     0.960000000
H    -3.894000000    -7.600000000     0.966000000
O    -5.251000000    -8.456000000    -1.700000000
H    -5.375000000    -8.561000000    -0.757000000
H    -4.887000000    -7.576000000    -1.797000000
O    -7.256000000    -3.810000000     2.362000000
H    -7.706000000    -4.650000000     2.457000000
H    -6.326000000    -4.029000000     2.418000000
O    -4.567000000    -4.046000000     1.477000000
H    -3.830000000    -4.564000000     1.154000000
H    -4.699000000    -3.374000000     0.808000000
O    -2.087000000    -7.478000000     0.625000000
H    -2.166000000    -6.534000000     0.485000000
H    -2.174000000    -7.858000000    -0.250000000
O    -2.796000000    -0.745000000    -2.134000000
H    -2.823000000    -1.005000000    -3.055000000
H    -1.863000000    -0.707000000    -1.923000000
O    -3.119000000    -9.985000000    -3.559000000
H    -3.681000000   -10.229000000    -2.823000000
H    -2.374000000    -9.542000000    -3.154000000
O    -1.946000000    -7.596000000    -2.720000000
H    -2.202000000    -6.704000000    -2.487000000
H    -1.004000000    -7.627000000    -2.550000000
O    -7.456000000    -5.935000000    -0.334000000
H    -7.143000000    -5.037000000    -0.442000000
H    -6.663000000    -6.446000000    -0.170000000
O    -7.626000000    -2.860000000    -0.112000000
H    -6.719000000    -2.600000000    -0.274000000
H    -7.639000000    -3.129000000     0.806000000
O    -4.867000000    -2.234000000    -0.562000000
H    -4.372000000    -1.416000000    -0.545000000
H    -4.785000000    -2.546000000    -1.463000000
