201
-1269.47013
C    -4.590000000     2.262000000     0.748000000
H    -4.225000000     3.118000000     0.185000000
C    -3.921000000     1.749000000     1.854000000
C    -4.380000000     0.595000000     2.552000000
H    -3.647000000     0.085000000     3.171000000
C    -2.568000000     2.396000000     2.293000000
O    -2.657000000     3.836000000     1.902000000
H    -1.756000000     1.977000000     1.681000000
O    -2.245000000     2.429000000     3.685000000
C    -0.958000000     2.009000000     4.076000000
C    -0.782000000     0.719000000     4.422000000
H    -1.591000000    -0.007000000     4.389000000
C     0.528000000     0.297000000     4.580000000
O     0.680000000    -1.040000000     4.860000000
C     1.603000000     1.156000000     4.575000000
C     3.043000000     0.772000000     4.846000000
H     3.617000000     1.651000000     5.143000000
C     3.708000000     0.173000000     3.592000000
C     4.333000000     0.988000000     2.604000000
H     4.431000000     2.059000000     2.763000000
H     3.119000000     0.095000000     5.699000000
C     1.371000000     2.514000000     4.353000000
H     2.236000000     3.173000000     4.334000000
C     0.086000000     2.926000000     3.941000000
C    -0.193000000     4.347000000     3.469000000
H     0.649000000     4.892000000     3.903000000
H    -1.098000000     4.642000000     4.004000000
C    -0.332000000     4.434000000     1.973000000
C     0.807000000     4.777000000     1.346000000
H     1.709000000     4.894000000     1.940000000
C    -1.504000000     4.256000000     1.252000000
C    -1.495000000     4.434000000    -0.101000000
H    -2.339000000     4.145000000    -0.722000000
C    -0.342000000     4.654000000    -0.822000000
O    -0.382000000     4.530000000    -2.206000000
C     0.097000000     3.252000000    -2.739000000
C    -0.757000000     2.899000000    -3.900000000
C    -0.152000000     2.184000000    -4.949000000
H     0.921000000     2.157000000    -5.120000000
C    -2.172000000     3.019000000    -3.872000000
H    -2.621000000     3.572000000    -3.050000000
O     1.420000000     3.531000000    -3.239000000
H     0.259000000     2.493000000    -1.959000000
C     0.821000000     4.838000000    -0.092000000
C     2.123000000     5.108000000    -0.856000000
H     2.748000000     5.795000000    -0.282000000
H     1.945000000     5.662000000    -1.780000000
C     2.895000000     3.858000000    -1.357000000
C     3.797000000     3.285000000    -0.489000000
H     4.097000000     3.824000000     0.406000000
C     2.439000000     3.098000000    -2.440000000
C     3.074000000     1.895000000    -2.716000000
H     2.849000000     1.394000000    -3.654000000
C     3.921000000     1.322000000    -1.824000000
O     4.355000000     0.024000000    -2.140000000
C     3.811000000    -1.073000000    -1.236000000
C     3.199000000    -2.177000000    -2.008000000
C     2.484000000    -2.015000000    -3.210000000
H     2.260000000    -1.011000000    -3.562000000
C     3.291000000    -3.441000000    -1.515000000
H     3.775000000    -3.537000000    -0.546000000
O     4.740000000    -1.413000000    -0.166000000
H     2.845000000    -0.714000000    -0.853000000
C     4.303000000     1.989000000    -0.669000000
C     5.364000000     1.448000000     0.345000000
H     5.994000000     2.211000000     0.807000000
H     6.045000000     0.832000000    -0.246000000
C     4.656000000     0.464000000     1.347000000
C     4.410000000    -0.897000000     1.078000000
C     3.817000000    -1.701000000     2.079000000
H     3.621000000    -2.753000000     1.885000000
C     3.473000000    -1.180000000     3.289000000
O     2.702000000    -2.015000000     4.051000000
C     1.261000000    -1.882000000     3.842000000
H     1.151000000    -1.353000000     2.884000000
C     0.509000000    -3.219000000     3.715000000
C    -0.862000000    -3.197000000     3.595000000
H    -1.433000000    -2.277000000     3.684000000
C     1.194000000    -4.390000000     3.393000000
H     2.277000000    -4.347000000     3.311000000
C     0.471000000    -5.588000000     3.087000000
O     1.147000000    -6.748000000     2.693000000
C    -0.889000000    -5.643000000     3.154000000
H    -1.521000000    -6.505000000     2.955000000
C    -1.570000000    -4.456000000     3.397000000
O    -2.923000000    -4.479000000     3.266000000
C    -3.733000000    -3.515000000     3.879000000
C    -4.587000000    -2.762000000     3.096000000
H    -4.687000000    -2.783000000     2.014000000
C    -3.580000000    -3.252000000     5.221000000
H    -2.983000000    -3.829000000     5.922000000
C    -4.422000000    -2.316000000     5.880000000
H    -4.248000000    -2.120000000     6.935000000
C    -5.283000000    -1.603000000     5.051000000
H    -5.899000000    -0.869000000     5.566000000
C    -5.333000000    -1.754000000     3.649000000
O    -6.185000000    -1.015000000     2.899000000
C    -5.651000000     0.081000000     2.273000000
C    -6.376000000     0.679000000     1.300000000
H    -7.291000000     0.227000000     0.926000000
C    -5.896000000     1.754000000     0.486000000
O    -6.635000000     2.293000000    -0.580000000
C    -6.187000000     3.027000000    -1.642000000
C    -5.466000000     2.362000000    -2.735000000
H    -5.253000000     1.306000000    -2.592000000
C    -6.301000000     4.408000000    -1.721000000
H    -6.826000000     4.941000000    -0.932000000
C    -5.686000000     5.116000000    -2.731000000
H    -5.625000000     6.200000000    -2.794000000
C    -5.117000000     4.449000000    -3.776000000
H    -4.722000000     4.959000000    -4.652000000
C    -5.086000000     3.101000000    -3.819000000
O    -4.382000000     2.515000000    -4.851000000
C    -2.956000000     2.494000000    -4.929000000
C    -2.322000000     1.872000000    -5.981000000
H    -2.897000000     1.564000000    -6.851000000
C    -0.958000000     1.703000000    -5.961000000
O    -0.374000000     1.125000000    -7.085000000
C     0.487000000     0.077000000    -7.074000000
C     0.487000000    -0.830000000    -6.020000000
H    -0.155000000    -0.668000000    -5.159000000
C     1.334000000    -0.081000000    -8.169000000
H     1.349000000     0.545000000    -9.058000000
C     2.056000000    -1.261000000    -8.265000000
H     2.642000000    -1.451000000    -9.161000000
C     2.117000000    -2.262000000    -7.259000000
H     2.807000000    -3.083000000    -7.434000000
C     1.346000000    -1.999000000    -6.095000000
O     1.242000000    -2.912000000    -5.038000000
C     2.043000000    -3.113000000    -3.970000000
C     2.137000000    -4.327000000    -3.407000000
H     1.764000000    -5.150000000    -4.012000000
C     2.724000000    -4.552000000    -2.193000000
O     2.695000000    -5.846000000    -1.723000000
C     3.014000000    -6.312000000    -0.451000000
C     4.105000000    -7.139000000    -0.152000000
H     4.723000000    -7.372000000    -1.016000000
C     4.272000000    -7.782000000     1.087000000
H     5.031000000    -8.542000000     1.253000000
C     3.252000000    -7.710000000     2.037000000
H     3.219000000    -8.396000000     2.880000000
C     2.227000000    -6.748000000     1.778000000
C     2.141000000    -6.079000000     0.589000000
H     1.256000000    -5.466000000     0.438000000
O    -4.730000000    -2.748000000    -8.008000000
H    -4.852000000    -2.914000000    -7.073000000
H    -5.119000000    -1.885000000    -8.151000000
O    -3.259000000    -5.463000000    -7.121000000
H    -3.735000000    -6.233000000    -7.431000000
H    -3.878000000    -5.016000000    -6.543000000
O    -6.625000000    -5.114000000    -3.739000000
H    -6.975000000    -4.256000000    -3.497000000
H    -7.235000000    -5.740000000    -3.348000000
O    -6.937000000    -2.389000000    -3.123000000
H    -7.126000000    -1.778000000    -3.835000000
H    -6.246000000    -1.961000000    -2.618000000
O    -8.660000000    -2.537000000    -0.916000000
H    -8.398000000    -2.340000000    -1.816000000
H    -9.287000000    -1.849000000    -0.693000000
O    -7.420000000    -1.303000000    -5.528000000
H    -6.652000000    -0.894000000    -5.928000000
H    -7.940000000    -1.614000000    -6.269000000
O    -4.320000000    -5.447000000    -1.651000000
H    -4.731000000    -4.606000000    -1.851000000
H    -4.742000000    -5.733000000    -0.841000000
O    -6.278000000    -2.881000000     0.165000000
H    -5.842000000    -2.463000000    -0.577000000
H    -7.203000000    -2.660000000     0.056000000
O    -1.329000000    -3.439000000    -6.707000000
H    -0.579000000    -3.957000000    -6.416000000
H    -1.956000000    -4.087000000    -7.030000000
O    -1.079000000    -6.683000000    -0.479000000
H    -1.914000000    -7.049000000    -0.189000000
H    -1.107000000    -5.769000000    -0.196000000
O    -1.683000000    -5.350000000    -3.393000000
H    -1.457000000    -5.171000000    -2.480000000
H    -2.430000000    -4.778000000    -3.571000000
O    -5.628000000    -7.550000000    -3.018000000
H    -4.686000000    -7.716000000    -3.033000000
H    -5.718000000    -6.651000000    -3.334000000
O    -5.904000000    -5.603000000     0.842000000
H    -6.173000000    -4.717000000     0.598000000
H    -6.680000000    -6.141000000     0.683000000
O    -5.171000000     0.340000000    -6.543000000
H    -4.422000000    -0.147000000    -6.201000000
H    -5.169000000     1.161000000    -6.050000000
O    -0.913000000    -6.359000000    -5.706000000
H    -1.019000000    -6.110000000    -4.787000000
H    -1.734000000    -6.095000000    -6.121000000
O    -5.013000000    -3.805000000    -5.401000000
H    -4.798000000    -3.014000000    -4.908000000
H    -5.530000000    -4.333000000    -4.792000000
O    -1.358000000    -3.897000000    -0.132000000
H    -0.855000000    -3.117000000    -0.364000000
H    -2.193000000    -3.557000000     0.190000000
O    -2.828000000    -8.128000000    -3.034000000
H    -2.997000000    -8.318000000    -3.956000000
H    -2.505000000    -7.227000000    -3.031000000
O    -3.094000000    -1.407000000    -5.745000000
H    -2.355000000    -1.924000000    -6.064000000
H    -3.262000000    -1.746000000    -4.866000000
