201
-1227.48679
C    -4.869000000     2.013000000     0.450000000
H    -4.392000000     2.648000000    -0.292000000
C    -4.261000000     1.800000000     1.666000000
C    -4.723000000     0.827000000     2.521000000
H    -4.092000000     0.561000000     3.365000000
C    -2.935000000     2.572000000     2.019000000
O    -2.820000000     3.894000000     1.386000000
H    -2.089000000     1.941000000     1.711000000
O    -2.825000000     2.678000000     3.398000000
C    -1.558000000     2.426000000     3.967000000
C    -1.183000000     1.139000000     4.265000000
H    -1.964000000     0.383000000     4.287000000
C     0.095000000     0.786000000     4.703000000
O     0.344000000    -0.581000000     4.886000000
C     1.148000000     1.702000000     4.610000000
C     2.596000000     1.224000000     4.745000000
H     3.216000000     2.118000000     4.840000000
C     3.160000000     0.723000000     3.401000000
C     3.901000000     1.525000000     2.537000000
H     4.059000000     2.589000000     2.692000000
H     2.720000000     0.514000000     5.565000000
C     0.848000000     2.999000000     3.955000000
H     1.602000000     3.714000000     3.635000000
C    -0.528000000     3.337000000     3.768000000
C    -0.711000000     4.707000000     3.031000000
H     0.093000000     5.355000000     3.387000000
H    -1.677000000     5.075000000     3.382000000
C    -0.547000000     4.641000000     1.519000000
C     0.610000000     4.913000000     0.799000000
H     1.490000000     5.144000000     1.394000000
C    -1.635000000     4.165000000     0.768000000
C    -1.625000000     4.079000000    -0.629000000
H    -2.498000000     3.737000000    -1.179000000
C    -0.430000000     4.380000000    -1.294000000
O    -0.443000000     4.213000000    -2.645000000
C     0.046000000     2.886000000    -2.975000000
C    -0.828000000     2.203000000    -4.037000000
C    -0.286000000     1.128000000    -4.768000000
H     0.744000000     0.830000000    -4.594000000
C    -2.146000000     2.481000000    -4.200000000
H    -2.585000000     3.187000000    -3.500000000
O     1.416000000     3.029000000    -3.421000000
H     0.102000000     2.219000000    -2.103000000
C     0.667000000     4.767000000    -0.545000000
C     1.970000000     5.090000000    -1.275000000
H     2.544000000     5.800000000    -0.676000000
H     1.739000000     5.550000000    -2.238000000
C     2.755000000     3.792000000    -1.512000000
C     3.726000000     3.406000000    -0.592000000
H     3.858000000     4.052000000     0.272000000
C     2.472000000     2.964000000    -2.561000000
C     3.203000000     1.769000000    -2.720000000
H     3.112000000     1.116000000    -3.584000000
C     4.295000000     1.477000000    -1.831000000
O     4.765000000     0.162000000    -1.922000000
C     4.290000000    -0.956000000    -1.179000000
C     4.270000000    -2.281000000    -1.926000000
C     4.040000000    -2.255000000    -3.336000000
H     4.016000000    -1.248000000    -3.745000000
C     4.331000000    -3.548000000    -1.298000000
H     4.525000000    -3.532000000    -0.229000000
O     4.954000000    -1.017000000     0.061000000
H     3.249000000    -0.808000000    -0.856000000
C     4.508000000     2.326000000    -0.725000000
C     5.323000000     1.897000000     0.486000000
H     5.574000000     2.730000000     1.146000000
H     6.284000000     1.439000000     0.245000000
C     4.471000000     0.961000000     1.412000000
C     4.475000000    -0.449000000     1.250000000
C     3.803000000    -1.273000000     2.089000000
H     3.782000000    -2.346000000     1.916000000
C     3.052000000    -0.637000000     3.112000000
O     2.257000000    -1.462000000     3.847000000
C     0.792000000    -1.362000000     3.711000000
H     0.602000000    -0.733000000     2.830000000
C     0.130000000    -2.782000000     3.566000000
C    -1.184000000    -2.897000000     3.925000000
H    -1.693000000    -2.013000000     4.300000000
C     0.768000000    -3.837000000     2.885000000
H     1.830000000    -3.766000000     2.664000000
C     0.107000000    -5.065000000     2.661000000
O     0.712000000    -6.154000000     1.974000000
C    -1.182000000    -5.140000000     3.064000000
H    -1.735000000    -6.064000000     2.912000000
C    -1.875000000    -4.083000000     3.648000000
O    -3.201000000    -4.300000000     3.888000000
C    -4.034000000    -3.304000000     4.402000000
C    -4.851000000    -2.593000000     3.509000000
H    -4.672000000    -2.714000000     2.444000000
C    -4.301000000    -3.188000000     5.783000000
H    -3.755000000    -3.866000000     6.433000000
C    -5.278000000    -2.288000000     6.222000000
H    -5.537000000    -2.273000000     7.278000000
C    -5.941000000    -1.466000000     5.313000000
H    -6.746000000    -0.787000000     5.579000000
C    -5.736000000    -1.644000000     3.977000000
O    -6.413000000    -0.893000000     3.037000000
C    -5.930000000     0.125000000     2.222000000
C    -6.537000000     0.410000000     1.031000000
H    -7.399000000    -0.225000000     0.842000000
C    -5.973000000     1.259000000     0.122000000
O    -6.686000000     1.495000000    -1.001000000
C    -6.250000000     2.200000000    -2.135000000
C    -5.516000000     1.579000000    -3.165000000
H    -5.223000000     0.532000000    -3.161000000
C    -6.582000000     3.534000000    -2.160000000
H    -7.063000000     3.914000000    -1.262000000
C    -6.074000000     4.403000000    -3.215000000
H    -6.312000000     5.461000000    -3.287000000
C    -5.335000000     3.785000000    -4.248000000
H    -5.090000000     4.373000000    -5.128000000
C    -5.036000000     2.398000000    -4.125000000
O    -4.269000000     1.895000000    -5.133000000
C    -2.923000000     1.665000000    -5.060000000
C    -2.338000000     0.641000000    -5.776000000
H    -2.948000000     0.066000000    -6.468000000
C    -1.019000000     0.310000000    -5.576000000
O    -0.480000000    -0.782000000    -6.282000000
C     0.880000000    -1.003000000    -6.374000000
C     1.455000000    -2.064000000    -5.733000000
H     0.755000000    -2.734000000    -5.240000000
C     1.600000000    -0.272000000    -7.251000000
H     1.147000000     0.473000000    -7.900000000
C     3.016000000    -0.474000000    -7.419000000
H     3.532000000     0.000000000    -8.250000000
C     3.570000000    -1.612000000    -6.790000000
H     4.587000000    -1.905000000    -7.038000000
C     2.827000000    -2.390000000    -5.898000000
O     3.411000000    -3.459000000    -5.363000000
C     3.841000000    -3.440000000    -4.039000000
C     3.870000000    -4.667000000    -3.374000000
H     3.632000000    -5.591000000    -3.894000000
C     4.168000000    -4.728000000    -1.986000000
O     4.159000000    -5.963000000    -1.341000000
C     3.740000000    -6.122000000     0.004000000
C     4.621000000    -6.585000000     0.987000000
H     5.607000000    -6.890000000     0.649000000
C     4.218000000    -6.942000000     2.247000000
H     4.934000000    -7.479000000     2.864000000
C     2.932000000    -6.731000000     2.605000000
H     2.670000000    -6.939000000     3.640000000
C     2.041000000    -6.253000000     1.644000000
C     2.445000000    -5.901000000     0.414000000
H     1.710000000    -5.598000000    -0.327000000
O    -0.549000000    -7.669000000    -7.752000000
H    -1.129000000    -7.949000000    -8.459000000
H    -1.051000000    -7.007000000    -7.278000000
O    -3.207000000    -6.134000000    -3.329000000
H    -2.692000000    -5.627000000    -2.701000000
H    -3.887000000    -6.551000000    -2.800000000
O    -0.210000000    -8.202000000    -4.361000000
H     0.258000000    -7.369000000    -4.425000000
H    -0.700000000    -8.139000000    -3.541000000
O    -4.557000000    -2.816000000    -2.958000000
H    -4.283000000    -2.643000000    -3.859000000
H    -3.893000000    -3.415000000    -2.617000000
O    -4.193000000    -2.438000000    -6.352000000
H    -4.508000000    -2.307000000    -7.247000000
H    -4.977000000    -2.673000000    -5.855000000
O    -4.985000000    -7.542000000    -1.538000000
H    -5.492000000    -8.199000000    -1.062000000
H    -4.573000000    -7.015000000    -0.853000000
O    -3.709000000    -5.688000000    -0.069000000
H    -3.044000000    -5.193000000    -0.547000000
H    -4.499000000    -5.151000000    -0.132000000
O    -2.442000000    -9.534000000    -2.226000000
H    -2.196000000    -9.455000000    -1.304000000
H    -3.399000000    -9.511000000    -2.221000000
O    -4.865000000    -5.183000000    -7.006000000
H    -5.591000000    -4.754000000    -6.553000000
H    -4.263000000    -5.439000000    -6.307000000
O    -6.047000000    -4.292000000    -0.178000000
H    -6.183000000    -3.637000000    -0.862000000
H    -6.797000000    -4.882000000    -0.259000000
O    -4.917000000    -6.929000000     2.116000000
H    -4.293000000    -6.465000000     1.559000000
H    -4.704000000    -7.855000000     1.994000000
O    -1.184000000    -3.046000000    -8.989000000
H    -0.267000000    -2.939000000    -9.240000000
H    -1.150000000    -3.358000000    -8.084000000
O    -6.728000000    -3.778000000    -5.172000000
H    -6.648000000    -3.989000000    -4.241000000
H    -7.410000000    -3.108000000    -5.208000000
O     1.461000000    -6.160000000    -6.819000000
H     1.279000000    -5.331000000    -6.377000000
H     0.614000000    -6.604000000    -6.855000000
O    -2.300000000    -6.206000000    -6.047000000
H    -1.722000000    -5.443000000    -6.057000000
H    -2.685000000    -6.203000000    -5.171000000
O     0.512000000    -5.360000000    -4.335000000
H    -0.263000000    -4.933000000    -3.971000000
H     1.245000000    -4.980000000    -3.851000000
O    -1.522000000    -7.431000000     0.498000000
H    -0.766000000    -6.880000000     0.700000000
H    -2.267000000    -6.830000000     0.509000000
O    -6.707000000    -1.639000000    -1.799000000
H    -5.987000000    -2.106000000    -2.223000000
H    -6.288000000    -0.893000000    -1.369000000
O    -1.702000000    -3.490000000    -5.939000000
H    -2.514000000    -3.020000000    -6.129000000
H    -1.609000000    -3.435000000    -4.988000000
