201
-1273.99443
C    -4.952000000     1.773000000     0.565000000
H    -4.748000000     2.748000000     0.130000000
C    -4.025000000     1.307000000     1.542000000
C    -4.088000000    -0.060000000     1.997000000
H    -3.466000000    -0.463000000     2.793000000
C    -2.858000000     2.135000000     2.209000000
O    -2.961000000     3.501000000     1.822000000
H    -1.926000000     1.748000000     1.771000000
O    -2.664000000     2.001000000     3.643000000
C    -1.311000000     1.735000000     4.071000000
C    -0.996000000     0.367000000     4.329000000
H    -1.770000000    -0.396000000     4.356000000
C     0.350000000     0.030000000     4.510000000
O     0.556000000    -1.325000000     4.604000000
C     1.323000000     1.026000000     4.713000000
C     2.782000000     0.525000000     4.918000000
H     3.419000000     1.258000000     5.418000000
C     3.364000000     0.049000000     3.583000000
C     4.048000000     0.969000000     2.818000000
H     4.142000000     1.989000000     3.181000000
H     2.732000000    -0.344000000     5.577000000
C     1.017000000     2.324000000     4.560000000
H     1.696000000     3.169000000     4.649000000
C    -0.292000000     2.718000000     4.139000000
C    -0.656000000     4.054000000     3.802000000
H     0.090000000     4.771000000     4.150000000
H    -1.578000000     4.457000000     4.225000000
C    -0.683000000     4.233000000     2.287000000
C     0.477000000     4.679000000     1.693000000
H     1.331000000     4.805000000     2.353000000
C    -1.794000000     4.132000000     1.429000000
C    -1.727000000     4.378000000     0.043000000
H    -2.631000000     4.204000000    -0.535000000
C    -0.563000000     4.785000000    -0.498000000
O    -0.476000000     4.780000000    -1.877000000
C     0.018000000     3.525000000    -2.358000000
C    -0.757000000     3.009000000    -3.602000000
C    -0.135000000     2.050000000    -4.417000000
H     0.904000000     1.739000000    -4.332000000
C    -2.133000000     3.308000000    -3.665000000
H    -2.574000000     4.021000000    -2.973000000
O     1.385000000     3.642000000    -2.742000000
H    -0.097000000     2.744000000    -1.592000000
C     0.593000000     4.919000000     0.311000000
C     1.940000000     5.247000000    -0.366000000
H     2.553000000     5.921000000     0.236000000
H     1.812000000     5.823000000    -1.284000000
C     2.660000000     4.005000000    -0.716000000
C     3.626000000     3.442000000     0.099000000
H     3.729000000     3.817000000     1.114000000
C     2.338000000     3.293000000    -1.875000000
C     3.126000000     2.216000000    -2.301000000
H     2.816000000     1.604000000    -3.144000000
C     4.158000000     1.750000000    -1.521000000
O     4.561000000     0.471000000    -1.889000000
C     4.002000000    -0.641000000    -1.222000000
C     3.986000000    -1.748000000    -2.292000000
C     4.028000000    -1.486000000    -3.702000000
H     4.018000000    -0.442000000    -4.005000000
C     3.770000000    -3.073000000    -1.898000000
H     3.700000000    -3.238000000    -0.825000000
O     4.823000000    -1.125000000    -0.089000000
H     2.945000000    -0.477000000    -0.966000000
C     4.356000000     2.320000000    -0.228000000
C     5.291000000     1.657000000     0.763000000
H     5.767000000     2.417000000     1.386000000
H     6.091000000     1.285000000     0.120000000
C     4.630000000     0.574000000     1.569000000
C     4.410000000    -0.708000000     1.112000000
C     3.709000000    -1.669000000     1.894000000
H     3.712000000    -2.703000000     1.559000000
C     3.237000000    -1.297000000     3.122000000
O     2.453000000    -2.263000000     3.709000000
C     1.006000000    -2.070000000     3.476000000
H     0.929000000    -1.510000000     2.532000000
C     0.271000000    -3.376000000     3.357000000
C    -0.744000000    -3.758000000     4.231000000
H    -1.221000000    -3.005000000     4.852000000
C     0.723000000    -4.293000000     2.421000000
H     1.597000000    -3.947000000     1.875000000
C     0.117000000    -5.511000000     2.293000000
O     0.582000000    -6.409000000     1.343000000
C    -0.989000000    -5.852000000     3.096000000
H    -1.474000000    -6.812000000     2.932000000
C    -1.437000000    -4.997000000     4.067000000
O    -2.648000000    -5.132000000     4.593000000
C    -3.633000000    -4.155000000     4.486000000
C    -3.901000000    -3.605000000     3.273000000
H    -3.255000000    -3.832000000     2.430000000
C    -4.456000000    -3.988000000     5.573000000
H    -4.369000000    -4.592000000     6.473000000
C    -5.543000000    -3.144000000     5.415000000
H    -6.134000000    -2.911000000     6.298000000
C    -5.792000000    -2.515000000     4.181000000
H    -6.623000000    -1.822000000     4.086000000
C    -4.957000000    -2.714000000     3.135000000
O    -5.302000000    -2.223000000     1.856000000
C    -5.023000000    -0.917000000     1.413000000
C    -5.865000000    -0.417000000     0.437000000
H    -6.624000000    -1.011000000    -0.066000000
C    -5.813000000     0.867000000    -0.024000000
O    -6.744000000     1.392000000    -0.901000000
C    -6.471000000     2.255000000    -1.915000000
C    -5.420000000     2.011000000    -2.828000000
H    -4.766000000     1.143000000    -2.824000000
C    -7.294000000     3.372000000    -2.001000000
H    -8.020000000     3.645000000    -1.239000000
C    -7.106000000     4.248000000    -3.064000000
H    -7.664000000     5.158000000    -3.270000000
C    -6.120000000     4.103000000    -3.972000000
H    -5.953000000     4.782000000    -4.804000000
C    -5.299000000     2.975000000    -3.836000000
O    -4.258000000     2.869000000    -4.730000000
C    -2.902000000     2.588000000    -4.558000000
C    -2.300000000     1.622000000    -5.345000000
H    -2.922000000     1.189000000    -6.123000000
C    -0.909000000     1.433000000    -5.339000000
O    -0.449000000     0.403000000    -6.129000000
C     0.902000000     0.164000000    -6.406000000
C     1.540000000    -0.990000000    -6.011000000
H     0.940000000    -1.755000000    -5.525000000
C     1.604000000     1.145000000    -7.106000000
H     1.073000000     2.024000000    -7.463000000
C     2.935000000     1.021000000    -7.372000000
H     3.421000000     1.863000000    -7.858000000
C     3.572000000    -0.169000000    -7.026000000
H     4.612000000    -0.348000000    -7.285000000
C     2.906000000    -1.144000000    -6.289000000
O     3.599000000    -2.267000000    -5.896000000
C     3.874000000    -2.553000000    -4.592000000
C     3.731000000    -3.893000000    -4.155000000
H     3.465000000    -4.663000000    -4.875000000
C     3.655000000    -4.148000000    -2.809000000
O     3.471000000    -5.456000000    -2.420000000
C     3.262000000    -5.814000000    -1.104000000
C     4.412000000    -6.130000000    -0.287000000
H     5.371000000    -6.163000000    -0.796000000
C     4.214000000    -6.419000000     1.063000000
H     5.082000000    -6.602000000     1.691000000
C     2.936000000    -6.537000000     1.586000000
H     2.919000000    -6.795000000     2.641000000
C     1.850000000    -6.343000000     0.827000000
C     2.005000000    -5.913000000    -0.510000000
H     1.155000000    -5.657000000    -1.136000000
O    -7.581000000    -3.703000000    -0.787000000
H    -7.805000000    -2.860000000    -1.180000000
H    -6.662000000    -3.838000000    -1.018000000
O    -6.967000000    -1.344000000    -2.718000000
H    -6.025000000    -1.196000000    -2.795000000
H    -7.335000000    -0.474000000    -2.561000000
O    -6.189000000    -3.028000000    -5.027000000
H    -6.002000000    -3.951000000    -4.854000000
H    -6.462000000    -2.676000000    -4.179000000
O    -4.331000000    -1.224000000    -2.574000000
H    -4.433000000    -2.101000000    -2.204000000
H    -3.396000000    -1.152000000    -2.764000000
O    -1.667000000    -7.383000000     0.090000000
H    -1.380000000    -6.709000000     0.707000000
H    -1.236000000    -7.153000000    -0.733000000
O    -2.842000000    -1.738000000    -5.088000000
H    -2.261000000    -1.247000000    -5.669000000
H    -2.253000000    -2.285000000    -4.568000000
O    -3.466000000    -5.686000000    -4.044000000
H    -3.036000000    -5.343000000    -3.260000000
H    -4.160000000    -6.253000000    -3.707000000
O    -4.546000000    -4.098000000    -1.707000000
H    -3.625000000    -4.204000000    -1.470000000
H    -4.890000000    -4.990000000    -1.736000000
O    -5.431000000    -7.692000000    -3.427000000
H    -5.174000000    -7.460000000    -2.534000000
H    -5.714000000    -8.605000000    -3.364000000
O     0.833000000    -8.592000000    -2.163000000
H     1.349000000    -8.038000000    -1.578000000
H     0.133000000    -8.021000000    -2.479000000
O    -4.829000000    -1.681000000    -7.090000000
H    -5.478000000    -2.006000000    -6.465000000
H    -4.002000000    -1.703000000    -6.609000000
O    -4.760000000    -5.911000000     1.276000000
H    -5.067000000    -6.344000000     2.073000000
H    -5.306000000    -5.129000000     1.202000000
O     0.150000000    -3.150000000    -7.957000000
H    -0.140000000    -3.485000000    -7.108000000
H     0.988000000    -3.585000000    -8.113000000
O     0.592000000    -7.618000000    -7.435000000
H     0.068000000    -8.419000000    -7.406000000
H     0.057000000    -6.966000000    -6.982000000
O    -0.865000000    -6.719000000    -2.587000000
H    -0.970000000    -6.669000000    -3.538000000
H    -0.955000000    -5.814000000    -2.289000000
O    -4.062000000    -6.886000000    -1.193000000
H    -4.333000000    -6.780000000    -0.281000000
H    -3.159000000    -7.198000000    -1.140000000
O    -4.226000000    -5.130000000    -6.546000000
H    -3.959000000    -5.195000000    -5.629000000
H    -4.932000000    -5.770000000    -6.635000000
O    -1.310000000    -6.449000000    -5.375000000
H    -1.679000000    -7.313000000    -5.560000000
H    -2.064000000    -5.916000000    -5.123000000
O     0.704000000    -4.495000000    -5.541000000
H    -0.030000000    -5.106000000    -5.471000000
H     0.774000000    -4.105000000    -4.669000000
