201
-1258.71868
C    -4.954000000     1.325000000     0.729000000
H    -4.535000000     2.162000000     0.176000000
C    -4.494000000     1.060000000     2.040000000
C    -4.857000000    -0.059000000     2.706000000
H    -4.396000000    -0.292000000     3.662000000
C    -3.257000000     1.894000000     2.618000000
O    -3.381000000     3.377000000     2.400000000
H    -2.400000000     1.500000000     2.052000000
O    -3.006000000     1.816000000     4.035000000
C    -1.714000000     1.482000000     4.406000000
C    -1.371000000     0.138000000     4.400000000
H    -2.156000000    -0.595000000     4.235000000
C    -0.026000000    -0.233000000     4.559000000
O     0.302000000    -1.633000000     4.539000000
C     0.966000000     0.747000000     4.713000000
C     2.431000000     0.353000000     4.964000000
H     2.954000000     1.193000000     5.427000000
C     3.195000000     0.033000000     3.684000000
C     3.968000000     0.969000000     3.036000000
H     4.025000000     1.944000000     3.513000000
H     2.549000000    -0.498000000     5.639000000
C     0.715000000     2.133000000     4.491000000
H     1.420000000     2.944000000     4.326000000
C    -0.696000000     2.479000000     4.366000000
C    -1.032000000     3.929000000     4.081000000
H    -0.331000000     4.673000000     4.465000000
H    -1.952000000     4.206000000     4.600000000
C    -1.109000000     4.203000000     2.606000000
C    -0.003000000     4.676000000     1.987000000
H     0.850000000     4.919000000     2.615000000
C    -2.254000000     3.957000000     1.829000000
C    -2.123000000     4.037000000     0.409000000
H    -2.966000000     3.710000000    -0.193000000
C    -0.934000000     4.417000000    -0.229000000
O    -0.769000000     4.370000000    -1.623000000
C    -0.005000000     3.359000000    -2.279000000
C    -0.682000000     2.824000000    -3.556000000
C     0.020000000     1.865000000    -4.315000000
H     1.099000000     1.908000000    -4.188000000
C    -2.068000000     2.947000000    -3.711000000
H    -2.636000000     3.678000000    -3.141000000
O     1.268000000     3.883000000    -2.547000000
H     0.159000000     2.461000000    -1.665000000
C     0.146000000     4.746000000     0.601000000
C     1.433000000     5.216000000     0.016000000
H     1.927000000     5.709000000     0.857000000
H     1.270000000     6.027000000    -0.697000000
C     2.409000000     4.107000000    -0.484000000
C     3.417000000     3.671000000     0.394000000
H     3.438000000     4.096000000     1.394000000
C     2.304000000     3.541000000    -1.732000000
C     3.169000000     2.475000000    -2.126000000
H     3.267000000     2.102000000    -3.142000000
C     4.187000000     2.063000000    -1.257000000
O     4.964000000     0.968000000    -1.579000000
C     4.426000000    -0.314000000    -1.129000000
C     4.285000000    -1.396000000    -2.182000000
C     4.394000000    -0.944000000    -3.556000000
H     4.358000000     0.091000000    -3.887000000
C     4.197000000    -2.755000000    -1.919000000
H     4.198000000    -3.094000000    -0.886000000
O     5.209000000    -0.738000000     0.074000000
H     3.377000000    -0.210000000    -0.812000000
C     4.285000000     2.595000000     0.028000000
C     5.199000000     2.027000000     1.093000000
H     5.501000000     2.787000000     1.817000000
H     6.136000000     1.774000000     0.593000000
C     4.611000000     0.803000000     1.790000000
C     4.631000000    -0.506000000     1.284000000
C     3.895000000    -1.514000000     1.916000000
H     3.818000000    -2.524000000     1.521000000
C     3.120000000    -1.177000000     3.042000000
O     2.374000000    -2.205000000     3.575000000
C     0.953000000    -2.072000000     3.329000000
H     0.749000000    -1.305000000     2.567000000
C     0.253000000    -3.370000000     2.807000000
C    -0.983000000    -3.801000000     3.353000000
H    -1.409000000    -3.294000000     4.215000000
C     0.855000000    -4.107000000     1.800000000
H     1.852000000    -3.820000000     1.476000000
C     0.154000000    -5.226000000     1.287000000
O     0.566000000    -6.019000000     0.204000000
C    -1.128000000    -5.504000000     1.647000000
H    -1.627000000    -6.318000000     1.128000000
C    -1.710000000    -4.815000000     2.742000000
O    -2.833000000    -5.288000000     3.246000000
C    -3.827000000    -4.425000000     3.766000000
C    -4.434000000    -3.450000000     2.966000000
H    -4.305000000    -3.368000000     1.890000000
C    -4.025000000    -4.503000000     5.084000000
H    -3.413000000    -5.191000000     5.662000000
C    -4.967000000    -3.679000000     5.746000000
H    -5.166000000    -3.838000000     6.802000000
C    -5.704000000    -2.784000000     4.964000000
H    -6.555000000    -2.220000000     5.337000000
C    -5.492000000    -2.716000000     3.575000000
O    -6.346000000    -1.941000000     2.826000000
C    -5.923000000    -0.826000000     2.181000000
C    -6.400000000    -0.560000000     0.919000000
H    -7.083000000    -1.261000000     0.446000000
C    -6.017000000     0.569000000     0.231000000
O    -6.403000000     0.693000000    -1.059000000
C    -6.190000000     1.809000000    -1.915000000
C    -5.257000000     1.574000000    -2.887000000
H    -4.727000000     0.625000000    -2.920000000
C    -6.915000000     2.973000000    -1.809000000
H    -7.543000000     3.231000000    -0.961000000
C    -6.651000000     3.968000000    -2.762000000
H    -7.124000000     4.940000000    -2.648000000
C    -5.675000000     3.733000000    -3.725000000
H    -5.475000000     4.490000000    -4.478000000
C    -4.981000000     2.587000000    -3.792000000
O    -4.125000000     2.318000000    -4.806000000
C    -2.763000000     2.143000000    -4.645000000
C    -2.027000000     1.310000000    -5.465000000
H    -2.532000000     0.757000000    -6.254000000
C    -0.656000000     1.239000000    -5.329000000
O     0.021000000     0.415000000    -6.203000000
C     1.376000000     0.505000000    -6.450000000
C     2.217000000    -0.549000000    -6.109000000
H     1.655000000    -1.385000000    -5.702000000
C     1.889000000     1.626000000    -7.102000000
H     1.202000000     2.365000000    -7.505000000
C     3.279000000     1.777000000    -7.365000000
H     3.735000000     2.603000000    -7.904000000
C     4.117000000     0.728000000    -6.857000000
H     5.201000000     0.696000000    -6.928000000
C     3.573000000    -0.444000000    -6.322000000
O     4.368000000    -1.431000000    -5.960000000
C     4.262000000    -1.874000000    -4.624000000
C     4.064000000    -3.190000000    -4.256000000
H     4.122000000    -3.912000000    -5.066000000
C     4.131000000    -3.672000000    -2.950000000
O     4.155000000    -5.060000000    -2.780000000
C     3.693000000    -5.706000000    -1.646000000
C     4.554000000    -6.484000000    -0.859000000
H     5.596000000    -6.429000000    -1.163000000
C     4.126000000    -7.130000000     0.276000000
H     4.801000000    -7.666000000     0.938000000
C     2.785000000    -6.898000000     0.700000000
H     2.354000000    -7.165000000     1.661000000
C     1.885000000    -6.137000000    -0.093000000
C     2.370000000    -5.510000000    -1.189000000
H     1.651000000    -4.993000000    -1.820000000
O    -9.144000000     0.229000000    -2.317000000
H    -8.911000000     1.150000000    -2.432000000
H    -8.303000000    -0.222000000    -2.241000000
O    -2.437000000    -7.751000000    -5.841000000
H    -2.964000000    -6.953000000    -5.871000000
H    -2.199000000    -7.915000000    -6.754000000
O    -7.575000000    -5.733000000    -4.953000000
H    -7.096000000    -5.888000000    -5.767000000
H    -6.904000000    -5.458000000    -4.329000000
O    -7.978000000    -4.410000000     1.997000000
H    -8.025000000    -4.252000000     2.940000000
H    -7.206000000    -3.921000000     1.710000000
O    -6.607000000    -1.874000000    -2.640000000
H    -5.729000000    -2.204000000    -2.451000000
H    -6.577000000    -1.627000000    -3.565000000
O    -3.471000000    -6.923000000    -1.761000000
H    -2.591000000    -6.675000000    -2.045000000
H    -3.432000000    -7.874000000    -1.663000000
O    -6.275000000     0.949000000    -6.175000000
H    -5.340000000     1.109000000    -6.049000000
H    -6.349000000    -0.003000000    -6.239000000
O    -1.899000000    -4.970000000    -8.415000000
H    -1.618000000    -5.864000000    -8.613000000
H    -2.614000000    -5.078000000    -7.787000000
O    -3.725000000    -2.321000000    -5.891000000
H    -3.155000000    -2.682000000    -6.570000000
H    -3.181000000    -2.311000000    -5.103000000
O    -4.637000000    -4.628000000    -3.949000000
H    -4.305000000    -3.759000000    -3.723000000
H    -4.939000000    -4.993000000    -3.117000000
O    -5.807000000    -3.597000000    -0.103000000
H    -5.210000000    -3.059000000    -0.624000000
H    -6.228000000    -4.173000000    -0.741000000
O    -6.600000000    -1.938000000    -6.038000000
H    -7.156000000    -2.696000000    -6.218000000
H    -5.717000000    -2.300000000    -5.968000000
O    -0.919000000    -2.429000000    -8.340000000
H    -0.690000000    -2.421000000    -7.411000000
H    -1.090000000    -3.350000000    -8.538000000
O     0.681000000    -5.276000000    -5.054000000
H     0.953000000    -5.834000000    -4.325000000
H     1.354000000    -5.409000000    -5.721000000
O    -1.148000000    -5.650000000    -2.586000000
H    -0.812000000    -5.706000000    -3.480000000
H    -1.593000000    -4.804000000    -2.550000000
O    -6.042000000    -6.340000000    -1.480000000
H    -5.095000000    -6.256000000    -1.371000000
H    -6.376000000    -6.459000000    -0.591000000
O    -8.203000000    -4.221000000    -1.628000000
H    -7.860000000    -3.546000000    -2.213000000
H    -8.488000000    -3.742000000    -0.850000000
O    -3.823000000    -5.497000000    -6.544000000
H    -4.033000000    -5.009000000    -5.747000000
H    -4.659000000    -5.579000000    -7.003000000
O    -0.875000000    -3.011000000    -5.566000000
H    -1.221000000    -2.708000000    -4.727000000
H    -0.695000000    -3.941000000    -5.429000000
