201
-1252.49445
C    -4.508000000     1.527000000     0.892000000
H    -3.970000000     2.371000000     0.468000000
C    -4.168000000     1.211000000     2.192000000
C    -4.916000000     0.219000000     2.823000000
H    -4.626000000    -0.045000000     3.837000000
C    -2.914000000     1.881000000     2.817000000
O    -2.942000000     3.313000000     2.447000000
H    -2.097000000     1.406000000     2.255000000
O    -2.728000000     1.660000000     4.174000000
C    -1.445000000     1.343000000     4.572000000
C    -1.233000000    -0.021000000     4.797000000
H    -2.000000000    -0.776000000     4.643000000
C     0.057000000    -0.515000000     4.863000000
O     0.210000000    -1.882000000     4.694000000
C     1.151000000     0.379000000     4.830000000
C     2.652000000    -0.116000000     4.877000000
H     3.307000000     0.621000000     5.345000000
C     3.207000000    -0.424000000     3.546000000
C     3.897000000     0.511000000     2.807000000
H     4.050000000     1.539000000     3.126000000
H     2.623000000    -0.974000000     5.552000000
C     0.897000000     1.719000000     4.702000000
H     1.792000000     2.335000000     4.740000000
C    -0.349000000     2.247000000     4.518000000
C    -0.682000000     3.745000000     4.293000000
H    -0.072000000     4.481000000     4.823000000
H    -1.699000000     3.912000000     4.652000000
C    -0.669000000     3.972000000     2.813000000
C     0.555000000     4.431000000     2.270000000
H     1.387000000     4.735000000     2.900000000
C    -1.780000000     3.879000000     1.977000000
C    -1.651000000     3.996000000     0.589000000
H    -2.516000000     3.850000000    -0.053000000
C    -0.443000000     4.426000000     0.034000000
O    -0.360000000     4.620000000    -1.289000000
C     0.227000000     3.645000000    -2.146000000
C    -0.485000000     3.258000000    -3.399000000
C     0.047000000     2.350000000    -4.376000000
H     1.029000000     2.017000000    -4.050000000
C    -1.744000000     3.735000000    -3.640000000
H    -2.180000000     4.472000000    -2.971000000
O     1.666000000     3.997000000    -2.444000000
H     0.308000000     2.697000000    -1.593000000
C     0.630000000     4.673000000     0.913000000
C     2.013000000     5.152000000     0.332000000
H     2.577000000     5.582000000     1.162000000
H     1.730000000     5.943000000    -0.366000000
C     2.837000000     3.971000000    -0.294000000
C     3.793000000     3.276000000     0.477000000
H     4.054000000     3.594000000     1.484000000
C     2.644000000     3.518000000    -1.603000000
C     3.313000000     2.408000000    -2.169000000
H     2.941000000     2.099000000    -3.143000000
C     4.185000000     1.710000000    -1.361000000
O     4.783000000     0.515000000    -1.756000000
C     4.173000000    -0.726000000    -1.431000000
C     4.132000000    -1.786000000    -2.576000000
C     4.140000000    -1.406000000    -3.929000000
H     4.184000000    -0.360000000    -4.218000000
C     3.959000000    -3.130000000    -2.331000000
H     3.951000000    -3.500000000    -1.309000000
O     4.752000000    -1.380000000    -0.296000000
H     3.101000000    -0.512000000    -1.311000000
C     4.427000000     2.147000000    -0.075000000
C     5.304000000     1.289000000     0.892000000
H     5.886000000     1.922000000     1.566000000
H     6.002000000     0.781000000     0.224000000
C     4.437000000     0.229000000     1.569000000
C     4.281000000    -1.072000000     1.004000000
C     3.601000000    -2.001000000     1.779000000
H     3.338000000    -2.930000000     1.279000000
C     2.983000000    -1.678000000     2.954000000
O     2.113000000    -2.522000000     3.539000000
C     0.696000000    -2.216000000     3.396000000
H     0.590000000    -1.382000000     2.687000000
C    -0.021000000    -3.382000000     2.795000000
C    -1.403000000    -3.569000000     3.048000000
H    -1.987000000    -2.836000000     3.600000000
C     0.606000000    -4.326000000     2.015000000
H     1.658000000    -4.149000000     1.806000000
C    -0.098000000    -5.418000000     1.440000000
O     0.519000000    -6.394000000     0.694000000
C    -1.378000000    -5.662000000     1.844000000
H    -1.947000000    -6.481000000     1.411000000
C    -2.039000000    -4.708000000     2.553000000
O    -3.412000000    -4.915000000     2.724000000
C    -4.270000000    -4.119000000     3.400000000
C    -4.991000000    -3.098000000     2.715000000
H    -4.745000000    -2.873000000     1.680000000
C    -4.667000000    -4.487000000     4.670000000
H    -4.144000000    -5.349000000     5.078000000
C    -5.560000000    -3.767000000     5.397000000
H    -5.836000000    -4.073000000     6.403000000
C    -6.289000000    -2.692000000     4.751000000
H    -7.042000000    -2.096000000     5.259000000
C    -5.934000000    -2.345000000     3.408000000
O    -6.684000000    -1.400000000     2.772000000
C    -6.001000000    -0.377000000     2.162000000
C    -6.396000000     0.006000000     0.890000000
H    -7.181000000    -0.458000000     0.297000000
C    -5.708000000     1.037000000     0.295000000
O    -6.146000000     1.428000000    -0.915000000
C    -5.777000000     2.537000000    -1.710000000
C    -4.858000000     2.373000000    -2.755000000
H    -4.511000000     1.394000000    -3.076000000
C    -6.317000000     3.729000000    -1.326000000
H    -7.090000000     3.846000000    -0.572000000
C    -5.996000000     4.863000000    -2.053000000
H    -6.469000000     5.797000000    -1.760000000
C    -5.115000000     4.778000000    -3.174000000
H    -4.793000000     5.651000000    -3.737000000
C    -4.616000000     3.553000000    -3.513000000
O    -3.899000000     3.489000000    -4.714000000
C    -2.565000000     3.183000000    -4.672000000
C    -1.978000000     2.303000000    -5.551000000
H    -2.579000000     1.988000000    -6.400000000
C    -0.640000000     1.924000000    -5.479000000
O    -0.168000000     1.060000000    -6.405000000
C     1.201000000     0.815000000    -6.551000000
C     1.728000000    -0.402000000    -6.334000000
H     1.155000000    -1.260000000    -5.991000000
C     2.010000000     1.883000000    -6.941000000
H     1.613000000     2.894000000    -6.976000000
C     3.356000000     1.661000000    -7.144000000
H     3.914000000     2.519000000    -7.509000000
C     3.936000000     0.401000000    -6.929000000
H     5.013000000     0.321000000    -7.051000000
C     3.078000000    -0.625000000    -6.550000000
O     3.577000000    -1.838000000    -6.235000000
C     3.791000000    -2.274000000    -4.922000000
C     3.556000000    -3.606000000    -4.702000000
H     3.247000000    -4.248000000    -5.522000000
C     3.662000000    -4.098000000    -3.368000000
O     3.451000000    -5.392000000    -3.051000000
C     3.241000000    -5.917000000    -1.810000000
C     4.203000000    -6.685000000    -1.217000000
H     5.177000000    -6.866000000    -1.666000000
C     3.948000000    -7.284000000     0.041000000
H     4.705000000    -7.883000000     0.541000000
C     2.788000000    -7.085000000     0.697000000
H     2.695000000    -7.491000000     1.701000000
C     1.781000000    -6.395000000     0.105000000
C     2.022000000    -5.755000000    -1.158000000
H     1.219000000    -5.264000000    -1.701000000
O    -8.300000000    -4.232000000    -4.262000000
H    -8.218000000    -4.383000000    -3.321000000
H    -7.406000000    -4.061000000    -4.556000000
O    -7.419000000     1.716000000    -4.389000000
H    -7.042000000     1.096000000    -5.013000000
H    -8.203000000     2.048000000    -4.826000000
O    -3.902000000    -7.443000000    -4.833000000
H    -3.565000000    -6.807000000    -5.463000000
H    -4.700000000    -7.040000000    -4.490000000
O    -6.299000000    -5.089000000    -6.858000000
H    -5.612000000    -5.014000000    -6.195000000
H    -6.721000000    -4.230000000    -6.864000000
O    -7.535000000    -4.408000000     1.370000000
H    -7.928000000    -4.457000000     2.242000000
H    -6.735000000    -3.897000000     1.496000000
O    -7.054000000    -1.377000000    -4.119000000
H    -6.202000000    -1.522000000    -3.708000000
H    -7.397000000    -0.594000000    -3.690000000
O    -4.413000000    -5.811000000    -2.097000000
H    -3.585000000    -6.270000000    -1.954000000
H    -4.406000000    -5.100000000    -1.456000000
O    -2.747000000    -5.628000000    -6.475000000
H    -2.211000000    -6.078000000    -7.129000000
H    -2.959000000    -4.786000000    -6.878000000
O    -4.343000000    -1.824000000    -6.737000000
H    -3.848000000    -2.643000000    -6.744000000
H    -4.223000000    -1.480000000    -5.851000000
O    -5.609000000    -4.224000000    -4.177000000
H    -5.215000000    -3.354000000    -4.114000000
H    -5.074000000    -4.771000000    -3.602000000
O    -2.926000000     0.379000000    -8.253000000
H    -2.046000000     0.191000000    -8.579000000
H    -3.025000000    -0.187000000    -7.488000000
O    -5.361000000    -3.531000000    -0.748000000
H    -4.984000000    -2.982000000    -1.436000000
H    -6.039000000    -4.040000000    -1.191000000
O    -6.189000000    -0.622000000    -9.332000000
H    -5.601000000    -0.648000000    -8.577000000
H    -5.897000000     0.137000000    -9.837000000
O    -7.546000000    -2.688000000    -6.636000000
H    -8.097000000    -1.997000000    -7.003000000
H    -7.243000000    -2.333000000    -5.800000000
O    -1.599000000    -4.391000000    -3.661000000
H    -1.971000000    -3.513000000    -3.752000000
H    -2.040000000    -4.909000000    -4.335000000
O    -1.770000000    -6.298000000    -1.346000000
H    -1.563000000    -5.503000000    -1.838000000
H    -1.220000000    -6.974000000    -1.742000000
O    -6.787000000    -7.016000000    -3.580000000
H    -6.693000000    -6.116000000    -3.269000000
H    -7.541000000    -6.988000000    -4.169000000
O    -1.538000000    -2.670000000    -6.571000000
H    -1.922000000    -2.224000000    -5.816000000
H    -0.768000000    -3.117000000    -6.219000000
O    -7.818000000    -4.897000000    -1.476000000
H    -8.382000000    -4.124000000    -1.440000000
H    -7.851000000    -5.259000000    -0.591000000
