215
-1454.05461
C    -0.523000000     0.426000000    -4.952000000
H     0.358000000    -0.171000000    -5.174000000
C    -0.472000000     1.493000000    -4.077000000
C    -1.647000000     2.192000000    -3.908000000
H    -1.743000000     3.075000000    -3.281000000
C     0.723000000     2.008000000    -3.359000000
O     1.908000000     1.565000000    -3.992000000
H     0.706000000     1.591000000    -2.341000000
O     0.887000000     3.459000000    -3.223000000
C     1.353000000     3.835000000    -2.010000000
C     0.426000000     4.403000000    -1.169000000
H    -0.594000000     4.459000000    -1.538000000
C     0.697000000     4.505000000     0.187000000
O    -0.332000000     4.849000000     1.043000000
C     2.012000000     4.200000000     0.651000000
C     2.321000000     4.436000000     2.102000000
H     3.392000000     4.647000000     2.074000000
C     2.080000000     3.285000000     3.125000000
C     3.046000000     2.354000000     3.368000000
H     4.079000000     2.461000000     3.046000000
H     1.950000000     5.381000000     2.505000000
C     3.020000000     3.832000000    -0.299000000
H     4.015000000     3.547000000     0.030000000
C     2.681000000     3.716000000    -1.665000000
C     3.791000000     3.129000000    -2.515000000
H     4.717000000     3.580000000    -2.153000000
H     3.729000000     3.424000000    -3.565000000
C     3.826000000     1.614000000    -2.510000000
C     4.758000000     0.882000000    -1.775000000
H     5.403000000     1.371000000    -1.049000000
C     2.826000000     0.913000000    -3.199000000
C     2.825000000    -0.465000000    -3.243000000
H     2.106000000    -1.085000000    -3.773000000
C     3.750000000    -1.125000000    -2.455000000
O     3.622000000    -2.472000000    -2.448000000
C     2.745000000    -2.969000000    -1.407000000
C     1.836000000    -4.111000000    -1.935000000
C     1.401000000    -5.147000000    -1.094000000
H     1.763000000    -5.168000000    -0.069000000
C     1.422000000    -4.056000000    -3.192000000
H     1.705000000    -3.276000000    -3.895000000
O     3.616000000    -3.478000000    -0.399000000
H     2.092000000    -2.226000000    -0.926000000
C     4.713000000    -0.468000000    -1.727000000
C     5.465000000    -1.190000000    -0.715000000
H     6.404000000    -0.650000000    -0.576000000
H     5.802000000    -2.150000000    -1.113000000
C     4.590000000    -1.486000000     0.537000000
C     4.637000000    -0.573000000     1.639000000
H     5.316000000     0.276000000     1.624000000
C     3.789000000    -2.638000000     0.658000000
C     2.990000000    -2.854000000     1.759000000
H     2.364000000    -3.742000000     1.758000000
C     2.946000000    -1.888000000     2.778000000
O     1.988000000    -2.147000000     3.788000000
C     0.908000000    -1.232000000     3.866000000
C    -0.433000000    -2.005000000     4.175000000
C    -0.769000000    -3.301000000     3.589000000
H     0.056000000    -3.780000000     3.067000000
C    -1.522000000    -1.327000000     4.710000000
H    -1.590000000    -0.326000000     5.128000000
O     1.144000000    -0.352000000     4.925000000
H     0.934000000    -0.617000000     2.955000000
C     3.845000000    -0.804000000     2.713000000
C     3.932000000     0.153000000     3.939000000
H     4.914000000     0.623000000     3.855000000
H     3.838000000    -0.523000000     4.791000000
C     2.755000000     1.173000000     3.984000000
C     1.467000000     0.887000000     4.556000000
C     0.465000000     1.869000000     4.305000000
H    -0.576000000     1.684000000     4.553000000
C     0.744000000     3.039000000     3.568000000
O    -0.346000000     3.912000000     3.255000000
C    -0.986000000     3.857000000     1.919000000
H    -0.822000000     2.895000000     1.411000000
C    -2.464000000     3.986000000     1.915000000
C    -3.119000000     4.552000000     0.801000000
H    -2.566000000     5.044000000     0.005000000
C    -3.163000000     3.392000000     2.965000000
H    -2.638000000     2.960000000     3.813000000
C    -4.546000000     3.502000000     2.915000000
O    -5.303000000     3.030000000     3.970000000
C    -5.261000000     3.951000000     1.804000000
H    -6.345000000     3.878000000     1.779000000
C    -4.542000000     4.478000000     0.721000000
O    -5.146000000     4.987000000    -0.384000000
C    -4.553000000     4.883000000    -1.625000000
C    -4.703000000     3.742000000    -2.375000000
H    -5.341000000     2.943000000    -2.005000000
C    -3.828000000     6.003000000    -2.086000000
H    -3.707000000     6.878000000    -1.453000000
C    -3.226000000     5.949000000    -3.352000000
H    -2.605000000     6.764000000    -3.714000000
C    -3.506000000     4.822000000    -4.126000000
H    -3.112000000     4.751000000    -5.136000000
C    -4.110000000     3.679000000    -3.615000000
O    -4.062000000     2.519000000    -4.292000000
C    -2.847000000     1.802000000    -4.551000000
C    -2.878000000     0.746000000    -5.399000000
H    -3.792000000     0.397000000    -5.872000000
C    -1.684000000     0.096000000    -5.615000000
O    -1.648000000    -0.850000000    -6.626000000
C    -0.730000000    -1.898000000    -6.740000000
C    -0.744000000    -2.930000000    -5.804000000
H    -1.479000000    -2.898000000    -5.004000000
C     0.140000000    -1.927000000    -7.852000000
H     0.164000000    -1.145000000    -8.606000000
C     1.018000000    -2.958000000    -7.971000000
H     1.700000000    -2.924000000    -8.816000000
C     1.004000000    -3.998000000    -7.013000000
H     1.724000000    -4.809000000    -7.082000000
C     0.130000000    -3.973000000    -5.930000000
O     0.134000000    -5.060000000    -4.991000000
C     0.567000000    -5.032000000    -3.699000000
C     0.131000000    -6.137000000    -2.914000000
H    -0.492000000    -6.948000000    -3.283000000
C     0.428000000    -6.076000000    -1.580000000
O     0.072000000    -7.147000000    -0.772000000
C    -0.059000000    -6.998000000     0.656000000
C    -1.049000000    -6.194000000     1.192000000
H    -1.607000000    -5.600000000     0.473000000
C     0.788000000    -7.646000000     1.515000000
H     1.638000000    -8.234000000     1.177000000
C     0.653000000    -7.482000000     2.865000000
H     1.289000000    -7.998000000     3.580000000
C    -0.321000000    -6.663000000     3.408000000
H    -0.389000000    -6.617000000     4.491000000
C    -1.200000000    -6.020000000     2.543000000
O    -2.178000000    -5.190000000     3.080000000
C    -2.013000000    -3.916000000     3.631000000
C    -3.018000000    -3.261000000     4.335000000
H    -3.992000000    -3.741000000     4.393000000
C    -2.779000000    -1.955000000     4.699000000
O    -3.853000000    -1.349000000     5.359000000
C    -4.034000000     0.000000000     5.617000000
C    -3.716000000     0.533000000     6.857000000
H    -3.329000000    -0.119000000     7.637000000
C    -3.994000000     1.912000000     7.156000000
H    -3.663000000     2.345000000     8.097000000
C    -4.499000000     2.739000000     6.158000000
H    -4.707000000     3.792000000     6.329000000
C    -4.836000000     2.205000000     4.932000000
C    -4.574000000     0.856000000     4.610000000
H    -4.876000000     0.421000000     3.660000000
C    -0.910000000    -1.632000000    -1.291000000
H    -0.752000000    -2.236000000    -2.181000000
C    -0.074000000    -0.585000000    -0.977000000
H     0.707000000    -0.334000000    -1.690000000
C    -0.277000000     0.135000000     0.197000000
H     0.440000000     0.875000000     0.459000000
C    -1.222000000    -0.271000000     1.154000000
H    -1.301000000     0.246000000     2.107000000
C    -2.081000000    -1.287000000     0.849000000
H    -2.867000000    -1.563000000     1.547000000
C    -1.980000000    -1.931000000    -0.373000000
C    -2.825000000    -3.196000000    -0.586000000
O    -3.985000000    -3.156000000    -0.166000000
O    -2.468000000    -4.019000000    -1.435000000
O    -3.481000000    -8.723000000     1.666000000
H    -2.807000000    -8.748000000     0.986000000
H    -3.585000000    -7.793000000     1.867000000
O    -5.647000000    -4.803000000    -5.155000000
H    -5.011000000    -4.173000000    -4.816000000
H    -5.604000000    -5.539000000    -4.544000000
O    -9.591000000    -3.243000000    -0.622000000
H    -9.935000000    -2.726000000     0.107000000
H    -8.860000000    -3.733000000    -0.245000000
O    -6.986000000    -2.495000000    -4.150000000
H    -6.965000000    -2.620000000    -3.202000000
H    -6.418000000    -3.183000000    -4.496000000
O    -2.543000000    -9.248000000    -0.834000000
H    -3.185000000    -9.864000000    -1.187000000
H    -1.892000000    -9.801000000    -0.402000000
O    -8.179000000     0.343000000     1.153000000
H    -8.307000000     0.312000000     2.101000000
H    -7.237000000     0.219000000     1.035000000
O    -5.848000000    -1.261000000     1.085000000
H    -5.267000000    -1.944000000     0.749000000
H    -6.178000000    -1.613000000     1.912000000
O    -5.290000000     0.632000000    -0.605000000
H    -5.631000000     0.017000000     0.045000000
H    -4.387000000     0.351000000    -0.750000000
O    -7.000000000    -1.693000000     3.777000000
H    -6.671000000    -2.027000000     4.612000000
H    -7.336000000    -0.821000000     3.983000000
O    -5.321000000    -7.273000000    -3.613000000
H    -6.022000000    -7.726000000    -3.145000000
H    -4.704000000    -7.015000000    -2.929000000
O    -7.821000000    -5.012000000    -2.303000000
H    -7.926000000    -5.729000000    -1.678000000
H    -7.458000000    -4.293000000    -1.785000000
O    -7.283000000     1.407000000    -2.508000000
H    -6.442000000     0.978000000    -2.350000000
H    -7.933000000     0.793000000    -2.168000000
O    -7.922000000    -4.720000000     0.885000000
H    -8.261000000    -4.596000000     1.771000000
H    -6.971000000    -4.745000000     0.994000000
O    -3.745000000    -3.127000000    -3.619000000
H    -3.946000000    -2.260000000    -3.266000000
H    -3.238000000    -3.555000000    -2.929000000
O    -2.610000000    -8.160000000    -4.232000000
H    -2.378000000    -8.679000000    -3.462000000
H    -3.566000000    -8.115000000    -4.211000000
O    -3.595000000    -6.486000000    -1.636000000
H    -2.888000000    -7.096000000    -1.427000000
H    -3.218000000    -5.620000000    -1.479000000
O    -6.469000000    -2.739000000    -1.557000000
H    -5.577000000    -2.984000000    -1.312000000
H    -6.687000000    -2.013000000    -0.973000000
O    -5.239000000    -5.106000000     0.951000000
H    -4.777000000    -4.323000000     0.649000000
H    -4.979000000    -5.790000000     0.333000000
O    -6.308000000    -5.679000000     3.510000000
H    -6.870000000    -6.310000000     3.060000000
H    -5.757000000    -5.313000000     2.819000000
