215
-1448.46278
C    -1.664000000    -5.444000000     0.646000000
H    -0.845000000    -6.073000000     0.984000000
C    -1.693000000    -4.654000000    -0.490000000
C    -2.808000000    -3.881000000    -0.779000000
H    -2.758000000    -3.182000000    -1.610000000
C    -0.388000000    -4.272000000    -1.123000000
O     0.713000000    -5.025000000    -0.663000000
H    -0.185000000    -3.233000000    -0.828000000
O    -0.426000000    -4.361000000    -2.551000000
C     0.070000000    -3.266000000    -3.279000000
C    -0.834000000    -2.331000000    -3.776000000
H    -1.900000000    -2.510000000    -3.657000000
C    -0.370000000    -1.253000000    -4.500000000
O    -1.244000000    -0.238000000    -4.853000000
C     0.966000000    -0.973000000    -4.727000000
C     1.461000000     0.211000000    -5.453000000
H     2.379000000    -0.025000000    -5.994000000
C     1.707000000     1.332000000    -4.422000000
C     2.977000000     1.384000000    -3.774000000
H     3.734000000     0.684000000    -4.117000000
H     0.822000000     0.650000000    -6.222000000
C     1.866000000    -1.877000000    -4.119000000
H     2.900000000    -1.544000000    -4.153000000
C     1.462000000    -3.077000000    -3.475000000
C     2.484000000    -4.048000000    -2.902000000
H     3.446000000    -3.944000000    -3.407000000
H     2.111000000    -5.061000000    -3.071000000
C     2.748000000    -3.819000000    -1.426000000
C     3.803000000    -2.993000000    -1.069000000
H     4.541000000    -2.629000000    -1.780000000
C     1.879000000    -4.320000000    -0.440000000
C     2.129000000    -4.060000000     0.889000000
H     1.487000000    -4.480000000     1.658000000
C     3.146000000    -3.158000000     1.261000000
O     3.193000000    -2.727000000     2.561000000
C     2.838000000    -1.377000000     2.783000000
C     1.914000000    -1.287000000     3.980000000
C     1.967000000    -0.052000000     4.701000000
H     2.739000000     0.702000000     4.570000000
C     0.906000000    -2.217000000     4.193000000
H     0.899000000    -3.145000000     3.627000000
O     4.058000000    -0.477000000     2.939000000
H     2.300000000    -0.959000000     1.920000000
C     4.065000000    -2.659000000     0.278000000
C     5.284000000    -1.861000000     0.664000000
H     6.143000000    -2.161000000     0.060000000
H     5.672000000    -2.106000000     1.656000000
C     4.991000000    -0.346000000     0.676000000
C     5.175000000     0.311000000    -0.511000000
H     5.502000000    -0.222000000    -1.400000000
C     4.508000000     0.225000000     1.816000000
C     4.092000000     1.584000000     1.771000000
H     3.496000000     1.975000000     2.592000000
C     4.316000000     2.301000000     0.559000000
O     3.736000000     3.551000000     0.502000000
C     2.317000000     3.627000000     0.131000000
C     1.424000000     4.513000000     0.915000000
C     1.772000000     4.967000000     2.222000000
H     2.714000000     4.619000000     2.639000000
C     0.186000000     4.826000000     0.385000000
H    -0.010000000     4.596000000    -0.659000000
O     2.240000000     3.983000000    -1.288000000
H     1.861000000     2.659000000     0.385000000
C     4.728000000     1.638000000    -0.610000000
C     4.550000000     2.295000000    -1.976000000
H     5.260000000     1.829000000    -2.662000000
H     4.963000000     3.306000000    -1.935000000
C     3.167000000     2.255000000    -2.702000000
C     2.140000000     3.126000000    -2.353000000
C     0.902000000     3.097000000    -2.962000000
H     0.102000000     3.770000000    -2.666000000
C     0.726000000     2.178000000    -3.951000000
O    -0.589000000     1.932000000    -4.313000000
C    -1.419000000     0.840000000    -3.877000000
H    -1.004000000     0.580000000    -2.893000000
C    -2.849000000     1.352000000    -3.771000000
C    -3.964000000     0.515000000    -3.720000000
H    -3.898000000    -0.496000000    -4.114000000
C    -3.073000000     2.679000000    -3.548000000
H    -2.220000000     3.347000000    -3.465000000
C    -4.392000000     3.187000000    -3.362000000
O    -4.530000000     4.535000000    -3.222000000
C    -5.475000000     2.413000000    -3.494000000
H    -6.506000000     2.751000000    -3.557000000
C    -5.232000000     1.050000000    -3.595000000
O    -6.272000000     0.165000000    -3.493000000
C    -6.172000000    -1.152000000    -3.034000000
C    -5.437000000    -1.385000000    -1.850000000
H    -5.106000000    -0.576000000    -1.203000000
C    -6.658000000    -2.144000000    -3.891000000
H    -7.206000000    -1.955000000    -4.811000000
C    -6.659000000    -3.421000000    -3.423000000
H    -7.059000000    -4.243000000    -4.011000000
C    -6.108000000    -3.742000000    -2.116000000
H    -6.256000000    -4.686000000    -1.599000000
C    -5.459000000    -2.735000000    -1.378000000
O    -4.972000000    -3.069000000    -0.181000000
C    -3.929000000    -3.893000000     0.005000000
C    -3.930000000    -4.714000000     1.076000000
H    -4.728000000    -4.660000000     1.811000000
C    -2.850000000    -5.500000000     1.435000000
O    -2.856000000    -6.285000000     2.552000000
C    -2.085000000    -5.924000000     3.630000000
C    -1.911000000    -4.606000000     3.952000000
H    -2.505000000    -3.853000000     3.442000000
C    -1.322000000    -6.898000000     4.312000000
H    -1.372000000    -7.947000000     4.035000000
C    -0.460000000    -6.444000000     5.378000000
H     0.267000000    -7.108000000     5.839000000
C    -0.343000000    -5.102000000     5.662000000
H     0.277000000    -4.764000000     6.489000000
C    -1.020000000    -4.211000000     4.910000000
O    -1.089000000    -2.950000000     5.330000000
C    -0.163000000    -1.966000000     5.028000000
C    -0.134000000    -0.713000000     5.695000000
H    -0.971000000    -0.440000000     6.333000000
C     0.839000000     0.265000000     5.439000000
O     0.636000000     1.559000000     5.947000000
C     1.533000000     2.646000000     5.836000000
C     0.956000000     3.669000000     5.190000000
H    -0.008000000     3.607000000     4.692000000
C     2.712000000     2.817000000     6.508000000
H     3.173000000     1.955000000     6.984000000
C     3.430000000     4.031000000     6.417000000
H     4.457000000     4.058000000     6.774000000
C     2.913000000     5.114000000     5.635000000
H     3.493000000     6.020000000     5.484000000
C     1.636000000     4.898000000     5.135000000
O     1.115000000     5.880000000     4.285000000
C     0.770000000     5.577000000     2.990000000
C    -0.557000000     5.824000000     2.441000000
H    -1.203000000     6.467000000     3.035000000
C    -0.799000000     5.539000000     1.121000000
O    -2.047000000     5.815000000     0.600000000
C    -2.347000000     6.013000000    -0.737000000
C    -1.477000000     6.733000000    -1.626000000
H    -0.456000000     7.038000000    -1.410000000
C    -1.675000000     6.756000000    -2.991000000
H    -1.076000000     7.403000000    -3.627000000
C    -2.758000000     6.104000000    -3.519000000
H    -3.004000000     6.336000000    -4.553000000
C    -3.566000000     5.363000000    -2.699000000
C    -3.443000000     5.286000000    -1.261000000
H    -4.108000000     4.636000000    -0.699000000
C    -1.404000000    -1.144000000     1.556000000
H    -1.652000000    -1.980000000     2.206000000
C    -0.177000000    -1.151000000     0.982000000
H     0.525000000    -1.980000000     1.019000000
C     0.070000000    -0.271000000    -0.110000000
H     1.016000000    -0.315000000    -0.713000000
C    -0.835000000     0.698000000    -0.389000000
H    -0.606000000     1.480000000    -1.108000000
C    -2.035000000     0.765000000     0.344000000
H    -2.716000000     1.604000000     0.224000000
C    -2.343000000    -0.161000000     1.324000000
C    -3.630000000    -0.118000000     2.122000000
O    -4.611000000     0.489000000     1.652000000
O    -3.815000000    -0.866000000     3.051000000
O    -1.761000000     3.031000000     7.011000000
H    -1.953000000     2.165000000     7.371000000
H    -1.326000000     2.852000000     6.177000000
O    -5.318000000     5.468000000     1.688000000
H    -4.481000000     5.476000000     2.152000000
H    -5.693000000     4.609000000     1.885000000
O    -7.663000000    -2.639000000     2.135000000
H    -6.779000000    -2.736000000     2.487000000
H    -7.747000000    -3.349000000     1.498000000
O    -2.352000000     1.790000000     4.690000000
H    -1.909000000     2.114000000     3.907000000
H    -1.991000000     0.914000000     4.825000000
O    -3.282000000     5.137000000     3.843000000
H    -3.157000000     4.252000000     3.502000000
H    -3.931000000     5.036000000     4.539000000
O    -6.457000000    -5.237000000     4.271000000
H    -6.238000000    -4.308000000     4.192000000
H    -7.162000000    -5.371000000     3.637000000
O    -5.464000000     0.983000000     4.386000000
H    -4.895000000     0.539000000     3.758000000
H    -5.819000000     0.279000000     4.929000000
O    -7.074000000     0.068000000     0.847000000
H    -6.187000000     0.349000000     1.072000000
H    -7.197000000    -0.748000000     1.332000000
O    -3.390000000     3.025000000     2.040000000
H    -4.127000000     2.461000000     2.273000000
H    -3.175000000     2.779000000     1.140000000
O    -2.467000000     0.438000000     8.221000000
H    -2.877000000     0.041000000     7.453000000
H    -2.089000000    -0.299000000     8.699000000
O    -7.159000000    -1.279000000     5.145000000
H    -7.312000000    -1.241000000     6.089000000
H    -7.979000000    -1.617000000     4.784000000
O    -5.459000000    -2.801000000     3.830000000
H    -6.081000000    -2.379000000     4.422000000
H    -4.909000000    -2.086000000     3.510000000
O    -9.014000000    -1.439000000    -0.635000000
H    -9.489000000    -0.752000000    -1.104000000
H    -8.336000000    -0.971000000    -0.148000000
O    -0.601000000     1.843000000     2.640000000
H    -1.035000000     2.591000000     2.228000000
H    -0.546000000     1.186000000     1.945000000
O    -3.291000000    -1.342000000     5.690000000
H    -2.590000000    -1.990000000     5.760000000
H    -3.420000000    -1.230000000     4.748000000
O    -7.027000000     4.399000000     4.649000000
H    -6.676000000     4.059000000     3.826000000
H    -6.278000000     4.402000000     5.246000000
O    -7.179000000     2.135000000    -0.956000000
H    -7.306000000     1.256000000    -0.600000000
H    -6.798000000     1.991000000    -1.822000000
O    -4.507000000     3.069000000     5.443000000
H    -3.619000000     2.716000000     5.407000000
H    -5.065000000     2.345000000     5.158000000
O    -6.199000000     2.751000000     2.501000000
H    -6.404000000     2.061000000     1.869000000
H    -5.776000000     2.292000000     3.226000000
