215
-1466.89864
C    -1.913000000    -4.117000000     1.753000000
H    -0.901000000    -4.196000000     2.142000000
C    -2.197000000    -4.065000000     0.374000000
C    -3.492000000    -4.064000000    -0.084000000
H    -3.590000000    -4.097000000    -1.166000000
C    -0.950000000    -4.024000000    -0.482000000
O     0.054000000    -4.882000000     0.005000000
H    -0.599000000    -2.981000000    -0.496000000
O    -1.305000000    -4.436000000    -1.840000000
C    -0.832000000    -3.690000000    -2.903000000
C    -1.648000000    -2.688000000    -3.405000000
H    -2.638000000    -2.553000000    -2.976000000
C    -1.091000000    -1.629000000    -4.132000000
O    -1.940000000    -0.597000000    -4.422000000
C     0.246000000    -1.680000000    -4.481000000
C     0.788000000    -0.617000000    -5.442000000
H     1.643000000    -1.083000000    -5.936000000
C     1.243000000     0.569000000    -4.562000000
C     2.509000000     0.613000000    -4.000000000
H     3.195000000    -0.210000000    -4.181000000
H     0.115000000    -0.319000000    -6.249000000
C     1.016000000    -2.717000000    -3.995000000
H     2.094000000    -2.734000000    -4.135000000
C     0.511000000    -3.701000000    -3.148000000
C     1.434000000    -4.756000000    -2.557000000
H     2.181000000    -5.096000000    -3.277000000
H     0.963000000    -5.735000000    -2.440000000
C     2.132000000    -4.320000000    -1.211000000
C     3.375000000    -3.736000000    -1.135000000
H     3.943000000    -3.473000000    -2.024000000
C     1.361000000    -4.462000000    -0.011000000
C     1.840000000    -3.967000000     1.203000000
H     1.264000000    -3.995000000     2.125000000
C     3.069000000    -3.367000000     1.244000000
O     3.383000000    -2.817000000     2.466000000
C     3.242000000    -1.391000000     2.676000000
C     2.765000000    -1.136000000     4.082000000
C     2.948000000     0.109000000     4.681000000
H     3.620000000     0.793000000     4.170000000
C     2.007000000    -2.081000000     4.757000000
H     1.913000000    -3.066000000     4.307000000
O     4.472000000    -0.704000000     2.362000000
H     2.385000000    -0.965000000     2.134000000
C     3.778000000    -3.170000000     0.083000000
C     5.143000000    -2.374000000     0.064000000
H     5.784000000    -2.703000000    -0.756000000
H     5.680000000    -2.634000000     0.978000000
C     4.860000000    -0.872000000    -0.027000000
C     4.903000000    -0.271000000    -1.251000000
H     5.250000000    -0.802000000    -2.134000000
C     4.480000000    -0.130000000     1.113000000
C     4.106000000     1.168000000     0.954000000
H     3.783000000     1.701000000     1.845000000
C     4.094000000     1.744000000    -0.308000000
O     3.616000000     3.088000000    -0.240000000
C     2.297000000     3.305000000    -0.760000000
C     1.515000000     4.318000000     0.069000000
C     1.595000000     4.380000000     1.466000000
H     2.349000000     3.755000000     1.938000000
C     0.558000000     5.217000000    -0.452000000
H     0.492000000     5.217000000    -1.537000000
O     2.318000000     3.723000000    -2.140000000
H     1.593000000     2.463000000    -0.687000000
C     4.526000000     1.061000000    -1.408000000
C     4.386000000     1.788000000    -2.782000000
H     4.922000000     1.226000000    -3.549000000
H     4.682000000     2.836000000    -2.704000000
C     2.932000000     1.721000000    -3.232000000
C     2.010000000     2.711000000    -2.988000000
C     0.764000000     2.757000000    -3.571000000
H     0.095000000     3.567000000    -3.290000000
C     0.357000000     1.690000000    -4.410000000
O    -0.940000000     1.556000000    -4.736000000
C    -1.726000000     0.719000000    -3.875000000
H    -1.146000000     0.707000000    -2.941000000
C    -3.046000000     1.383000000    -3.508000000
C    -4.110000000     0.623000000    -3.179000000
H    -4.122000000    -0.424000000    -3.469000000
C    -3.102000000     2.757000000    -3.254000000
H    -2.226000000     3.369000000    -3.452000000
C    -4.294000000     3.293000000    -2.733000000
O    -4.473000000     4.627000000    -2.626000000
C    -5.413000000     2.489000000    -2.528000000
H    -6.362000000     2.929000000    -2.235000000
C    -5.305000000     1.122000000    -2.674000000
O    -6.416000000     0.322000000    -2.291000000
C    -6.446000000    -1.049000000    -2.151000000
C    -6.051000000    -1.721000000    -0.962000000
H    -5.654000000    -1.195000000    -0.098000000
C    -6.911000000    -1.804000000    -3.261000000
H    -7.196000000    -1.233000000    -4.142000000
C    -6.902000000    -3.220000000    -3.205000000
H    -7.274000000    -3.790000000    -4.053000000
C    -6.522000000    -3.855000000    -1.982000000
H    -6.515000000    -4.939000000    -1.906000000
C    -6.096000000    -3.099000000    -0.903000000
O    -5.779000000    -3.723000000     0.248000000
C    -4.493000000    -3.915000000     0.765000000
C    -4.279000000    -4.022000000     2.106000000
H    -5.050000000    -4.083000000     2.870000000
C    -3.008000000    -4.076000000     2.638000000
O    -2.895000000    -4.137000000     3.970000000
C    -1.765000000    -4.457000000     4.672000000
C    -1.077000000    -3.479000000     5.405000000
H    -1.469000000    -2.467000000     5.343000000
C    -1.288000000    -5.751000000     4.702000000
H    -1.796000000    -6.612000000     4.275000000
C    -0.028000000    -6.034000000     5.319000000
H     0.561000000    -6.944000000     5.242000000
C     0.606000000    -5.003000000     6.036000000
H     1.541000000    -5.129000000     6.576000000
C     0.034000000    -3.751000000     6.136000000
O     0.700000000    -2.680000000     6.761000000
C     1.398000000    -1.741000000     5.991000000
C     1.635000000    -0.508000000     6.569000000
H     1.218000000    -0.263000000     7.542000000
C     2.432000000     0.445000000     5.915000000
O     2.628000000     1.739000000     6.461000000
C     2.797000000     2.923000000     5.723000000
C     1.774000000     3.391000000     4.930000000
H     0.842000000     2.838000000     4.842000000
C     3.974000000     3.657000000     5.889000000
H     4.763000000     3.145000000     6.435000000
C     4.187000000     4.793000000     5.008000000
H     5.164000000     5.269000000     4.992000000
C     3.063000000     5.259000000     4.245000000
H     3.253000000     6.068000000     3.545000000
C     1.822000000     4.622000000     4.302000000
O     0.816000000     5.217000000     3.573000000
C     0.732000000     5.178000000     2.193000000
C    -0.173000000     6.052000000     1.627000000
H    -0.815000000     6.713000000     2.204000000
C    -0.248000000     6.083000000     0.264000000
O    -0.933000000     7.047000000    -0.386000000
C    -1.630000000     6.754000000    -1.531000000
C    -1.503000000     7.531000000    -2.686000000
H    -0.882000000     8.423000000    -2.640000000
C    -2.162000000     7.193000000    -3.862000000
H    -2.011000000     7.739000000    -4.790000000
C    -3.223000000     6.232000000    -3.842000000
H    -3.806000000     5.962000000    -4.720000000
C    -3.462000000     5.570000000    -2.630000000
C    -2.623000000     5.789000000    -1.534000000
H    -2.799000000     5.223000000    -0.623000000
C    -2.140000000    -0.105000000     0.957000000
H    -2.448000000    -1.044000000     1.410000000
C    -0.952000000    -0.151000000     0.235000000
H    -0.448000000    -1.101000000     0.077000000
C    -0.452000000     0.994000000    -0.363000000
H     0.409000000     0.910000000    -0.920000000
C    -1.224000000     2.152000000    -0.394000000
H    -0.825000000     2.996000000    -0.952000000
C    -2.425000000     2.158000000     0.272000000
H    -3.064000000     3.034000000     0.350000000
C    -2.922000000     1.017000000     0.885000000
C    -4.320000000     1.039000000     1.576000000
O    -5.065000000     1.945000000     1.283000000
O    -4.621000000     0.228000000     2.465000000
O    -9.795000000     1.092000000     3.380000000
H   -10.128000000     1.831000000     2.870000000
H    -8.850000000     1.101000000     3.227000000
O    -1.435000000     1.437000000     5.115000000
H    -0.933000000     1.107000000     4.370000000
H    -2.146000000     0.805000000     5.224000000
O    -2.142000000     3.996000000     4.049000000
H    -1.718000000     4.701000000     4.538000000
H    -1.859000000     3.195000000     4.490000000
O    -6.063000000    -4.079000000     5.544000000
H    -6.722000000    -4.597000000     5.082000000
H    -5.885000000    -3.342000000     4.961000000
O    -8.225000000     5.029000000     1.476000000
H    -8.516000000     5.856000000     1.093000000
H    -9.029000000     4.521000000     1.588000000
O    -4.773000000     3.115000000     3.995000000
H    -5.014000000     2.658000000     3.189000000
H    -3.847000000     3.330000000     3.882000000
O    -7.946000000     0.663000000     0.180000000
H    -7.455000000     0.976000000     0.940000000
H    -7.416000000     0.927000000    -0.573000000
O    -4.048000000     6.028000000     3.077000000
H    -4.408000000     5.636000000     2.281000000
H    -3.388000000     5.402000000     3.375000000
O    -4.619000000     7.469000000    -0.119000000
H    -4.717000000     6.517000000    -0.085000000
H    -4.880000000     7.705000000    -1.009000000
O    -5.994000000    -1.611000000     3.983000000
H    -5.679000000    -1.344000000     3.120000000
H    -6.376000000    -0.816000000     4.355000000
O    -7.128000000     0.882000000     3.238000000
H    -7.061000000     1.131000000     4.160000000
H    -6.221000000     0.831000000     2.937000000
O    -9.965000000    -1.068000000     1.338000000
H   -10.256000000    -0.657000000     2.152000000
H    -9.469000000    -0.383000000     0.889000000
O    -9.957000000     2.586000000    -1.140000000
H    -9.351000000     2.174000000    -0.524000000
H   -10.427000000     1.854000000    -1.540000000
O    -7.483000000     1.426000000     6.712000000
H    -7.466000000     0.482000000     6.550000000
H    -8.392000000     1.612000000     6.946000000
O    -0.053000000     1.526000000     2.791000000
H    -0.197000000     2.402000000     2.433000000
H     0.032000000     0.963000000     2.021000000
O    -3.490000000    -0.239000000     4.791000000
H    -3.859000000    -1.112000000     4.928000000
H    -3.635000000    -0.060000000     3.862000000
O    -5.767000000     3.754000000     6.414000000
H    -6.412000000     3.055000000     6.521000000
H    -5.251000000     3.489000000     5.652000000
O    -5.640000000     4.714000000     0.802000000
H    -5.514000000     3.781000000     0.626000000
H    -6.547000000     4.780000000     1.101000000
O    -4.225000000     1.266000000     7.305000000
H    -3.991000000     0.707000000     6.564000000
H    -5.012000000     1.729000000     7.016000000
