215
-1445.45767
C    -0.046000000    -0.268000000    -4.693000000
H    -0.741000000    -0.964000000    -4.231000000
C     1.319000000    -0.372000000    -4.422000000
C     2.161000000     0.673000000    -4.872000000
H     3.237000000     0.621000000    -4.724000000
C     1.825000000    -1.594000000    -3.631000000
O     1.218000000    -2.872000000    -3.893000000
H     1.619000000    -1.362000000    -2.575000000
O     3.316000000    -1.745000000    -3.660000000
C     3.905000000    -1.813000000    -2.430000000
C     4.381000000    -0.584000000    -1.842000000
H     4.293000000     0.363000000    -2.368000000
C     4.657000000    -0.502000000    -0.494000000
O     4.920000000     0.708000000     0.055000000
C     4.798000000    -1.677000000     0.271000000
C     5.010000000    -1.627000000     1.765000000
H     5.465000000    -2.491000000     2.254000000
C     3.860000000    -1.204000000     2.677000000
C     3.081000000    -2.188000000     3.294000000
H     3.338000000    -3.241000000     3.214000000
H     5.914000000    -1.016000000     1.822000000
C     4.402000000    -2.880000000    -0.284000000
H     4.433000000    -3.708000000     0.420000000
C     3.876000000    -2.977000000    -1.588000000
C     3.180000000    -4.303000000    -2.055000000
H     3.522000000    -5.219000000    -1.570000000
H     3.331000000    -4.442000000    -3.127000000
C     1.610000000    -4.128000000    -1.841000000
C     1.064000000    -4.797000000    -0.776000000
H     1.722000000    -5.350000000    -0.111000000
C     0.765000000    -3.480000000    -2.825000000
C    -0.602000000    -3.400000000    -2.494000000
H    -1.318000000    -2.886000000    -3.130000000
C    -1.123000000    -4.104000000    -1.438000000
O    -2.445000000    -4.004000000    -1.307000000
C    -2.903000000    -3.137000000    -0.289000000
C    -4.232000000    -2.599000000    -0.848000000
C    -5.275000000    -2.154000000     0.030000000
H    -5.057000000    -2.240000000     1.092000000
C    -4.452000000    -2.383000000    -2.202000000
H    -3.618000000    -2.684000000    -2.831000000
O    -3.102000000    -3.840000000     0.948000000
H    -2.185000000    -2.321000000    -0.118000000
C    -0.309000000    -4.818000000    -0.531000000
C    -0.789000000    -5.524000000     0.777000000
H    -0.145000000    -6.352000000     1.081000000
H    -1.761000000    -5.921000000     0.478000000
C    -0.983000000    -4.468000000     1.865000000
C     0.016000000    -4.147000000     2.754000000
H     0.955000000    -4.692000000     2.795000000
C    -2.150000000    -3.634000000     1.939000000
C    -2.337000000    -2.738000000     2.977000000
H    -3.299000000    -2.234000000     3.006000000
C    -1.374000000    -2.535000000     3.906000000
O    -1.505000000    -1.363000000     4.634000000
C    -0.638000000    -0.191000000     4.212000000
C    -1.486000000     1.062000000     4.207000000
C    -2.805000000     1.031000000     3.754000000
H    -3.158000000     0.044000000     3.466000000
C    -0.988000000     2.288000000     4.692000000
H     0.083000000     2.440000000     4.802000000
O     0.592000000    -0.026000000     5.048000000
H    -0.329000000    -0.354000000     3.169000000
C    -0.134000000    -3.143000000     3.709000000
C     1.062000000    -2.868000000     4.641000000
H     1.570000000    -3.792000000     4.925000000
H     0.636000000    -2.517000000     5.583000000
C     1.924000000    -1.782000000     3.994000000
C     1.773000000    -0.438000000     4.470000000
C     2.611000000     0.509000000     3.856000000
H     2.480000000     1.569000000     4.060000000
C     3.536000000     0.111000000     2.899000000
O     4.139000000     1.207000000     2.236000000
C     3.837000000     1.303000000     0.834000000
H     2.915000000     0.719000000     0.703000000
C     3.623000000     2.807000000     0.509000000
C     3.945000000     3.290000000    -0.769000000
H     4.386000000     2.603000000    -1.487000000
C     2.896000000     3.662000000     1.355000000
H     2.477000000     3.186000000     2.238000000
C     2.637000000     4.982000000     1.064000000
O     1.802000000     5.805000000     1.834000000
C     3.116000000     5.403000000    -0.147000000
H     3.002000000     6.439000000    -0.456000000
C     3.607000000     4.561000000    -1.087000000
O     3.862000000     5.126000000    -2.364000000
C     4.245000000     4.420000000    -3.490000000
C     3.301000000     3.768000000    -4.171000000
H     2.287000000     3.759000000    -3.779000000
C     5.507000000     4.464000000    -3.974000000
H     6.305000000     5.034000000    -3.506000000
C     5.898000000     3.814000000    -5.131000000
H     6.901000000     3.836000000    -5.548000000
C     4.834000000     3.144000000    -5.866000000
H     4.966000000     2.675000000    -6.838000000
C     3.530000000     3.191000000    -5.400000000
O     2.474000000     2.674000000    -6.072000000
C     1.645000000     1.803000000    -5.484000000
C     0.293000000     1.919000000    -5.689000000
H    -0.187000000     2.731000000    -6.228000000
C    -0.541000000     0.940000000    -5.246000000
O    -1.906000000     1.182000000    -5.224000000
C    -2.814000000     0.230000000    -5.493000000
C    -3.858000000     0.009000000    -4.592000000
H    -3.865000000     0.431000000    -3.591000000
C    -2.780000000    -0.564000000    -6.652000000
H    -2.033000000    -0.312000000    -7.400000000
C    -3.706000000    -1.545000000    -6.954000000
H    -3.617000000    -2.245000000    -7.781000000
C    -4.725000000    -1.819000000    -6.030000000
H    -5.453000000    -2.575000000    -6.314000000
C    -4.743000000    -1.095000000    -4.804000000
O    -5.794000000    -1.377000000    -3.973000000
C    -5.604000000    -1.670000000    -2.619000000
C    -6.597000000    -1.324000000    -1.715000000
H    -7.439000000    -0.757000000    -2.103000000
C    -6.421000000    -1.525000000    -0.347000000
O    -7.379000000    -1.049000000     0.555000000
C    -7.012000000    -0.541000000     1.795000000
C    -6.158000000     0.505000000     1.869000000
H    -5.785000000     1.017000000     0.986000000
C    -7.487000000    -1.154000000     2.941000000
H    -8.154000000    -2.007000000     2.845000000
C    -6.964000000    -0.769000000     4.182000000
H    -7.301000000    -1.350000000     5.036000000
C    -6.065000000     0.307000000     4.295000000
H    -5.666000000     0.586000000     5.267000000
C    -5.680000000     0.937000000     3.129000000
O    -4.856000000     2.057000000     3.208000000
C    -3.626000000     2.155000000     3.750000000
C    -3.158000000     3.398000000     4.274000000
H    -3.774000000     4.289000000     4.186000000
C    -1.817000000     3.400000000     4.720000000
O    -1.306000000     4.559000000     5.269000000
C    -0.072000000     4.939000000     4.933000000
C     0.911000000     5.132000000     5.870000000
H     0.699000000     5.034000000     6.931000000
C     2.215000000     5.487000000     5.438000000
H     3.000000000     5.677000000     6.166000000
C     2.467000000     5.773000000     4.114000000
H     3.396000000     6.229000000     3.781000000
C     1.460000000     5.566000000     3.181000000
C     0.192000000     5.116000000     3.586000000
H    -0.611000000     5.019000000     2.859000000
C    -1.939000000     0.652000000     0.001000000
H    -2.818000000     0.953000000     0.565000000
C    -1.007000000    -0.207000000     0.503000000
H    -1.264000000    -0.776000000     1.393000000
C     0.266000000    -0.321000000    -0.081000000
H     1.131000000    -0.993000000     0.343000000
C     0.582000000     0.555000000    -1.091000000
H     1.584000000     0.675000000    -1.497000000
C    -0.381000000     1.402000000    -1.670000000
H    -0.204000000     2.108000000    -2.478000000
C    -1.701000000     1.419000000    -1.151000000
C    -2.797000000     2.286000000    -1.617000000
O    -2.538000000     3.130000000    -2.425000000
O    -3.905000000     2.233000000    -1.126000000
O    -1.754000000     2.072000000    -8.389000000
H    -2.229000000     2.478000000    -7.664000000
H    -2.381000000     2.062000000    -9.111000000
O    -8.333000000     1.384000000    -3.549000000
H    -7.615000000     1.701000000    -3.001000000
H    -8.792000000     2.176000000    -3.826000000
O    -3.411000000     6.709000000     1.501000000
H    -3.626000000     5.779000000     1.418000000
H    -3.091000000     6.959000000     0.635000000
O    -2.260000000     7.168000000    -0.838000000
H    -2.014000000     8.028000000    -1.176000000
H    -2.814000000     6.790000000    -1.521000000
O    -3.455000000     5.904000000    -2.603000000
H    -3.258000000     4.974000000    -2.491000000
H    -4.396000000     5.930000000    -2.776000000
O    -3.949000000     8.829000000    -2.803000000
H    -3.845000000     9.127000000    -1.899000000
H    -4.458000000     8.022000000    -2.732000000
O    -3.269000000     3.908000000    -7.007000000
H    -2.857000000     4.511000000    -6.389000000
H    -4.095000000     4.331000000    -7.241000000
O    -6.476000000     6.661000000     0.855000000
H    -6.201000000     7.565000000     0.705000000
H    -5.796000000     6.131000000     0.440000000
O    -6.083000000     6.589000000    -2.909000000
H    -6.987000000     6.752000000    -2.640000000
H    -6.161000000     6.057000000    -3.701000000
O     0.153000000     5.926000000    -0.901000000
H     0.195000000     5.163000000    -0.326000000
H    -0.731000000     6.272000000    -0.776000000
O    -1.635000000     5.920000000    -5.762000000
H    -0.992000000     5.479000000    -5.206000000
H    -1.769000000     6.771000000    -5.344000000
O    -0.999000000     3.768000000     0.355000000
H    -1.454000000     3.651000000    -0.479000000
H    -1.227000000     2.989000000     0.863000000
O    -0.144000000     4.541000000    -3.684000000
H     0.472000000     4.854000000    -3.022000000
H    -0.706000000     3.924000000    -3.215000000
O    -4.507000000     3.181000000    -4.488000000
H    -4.120000000     2.832000000    -5.291000000
H    -3.789000000     3.177000000    -3.855000000
O    -6.250000000     2.252000000    -2.172000000
H    -6.070000000     2.775000000    -2.953000000
H    -5.422000000     2.248000000    -1.691000000
O    -6.185000000     5.145000000    -5.337000000
H    -5.998000000     5.219000000    -6.272000000
H    -5.648000000     4.409000000    -5.043000000
O    -7.800000000     2.642000000     0.072000000
H    -7.806000000     2.731000000    -0.881000000
H    -6.875000000     2.545000000     0.297000000
O     1.469000000     6.596000000    -4.734000000
H     1.104000000     5.792000000    -4.365000000
H     0.992000000     7.300000000    -4.294000000
O    -4.281000000     4.073000000     0.948000000
H    -4.194000000     3.333000000     0.346000000
H    -4.362000000     3.670000000     1.812000000
