215
-1463.58440
C    -1.371000000    -5.383000000     0.559000000
H    -0.406000000    -5.586000000     1.016000000
C    -1.553000000    -4.677000000    -0.682000000
C    -2.856000000    -4.424000000    -1.140000000
H    -2.929000000    -3.804000000    -2.031000000
C    -0.307000000    -4.157000000    -1.395000000
O     0.860000000    -4.911000000    -1.201000000
H     0.011000000    -3.166000000    -1.040000000
O    -0.477000000    -4.079000000    -2.832000000
C    -0.081000000    -2.977000000    -3.587000000
C    -1.083000000    -2.051000000    -3.826000000
H    -2.056000000    -2.399000000    -3.488000000
C    -0.665000000    -0.914000000    -4.476000000
O    -1.653000000     0.069000000    -4.636000000
C     0.655000000    -0.699000000    -4.915000000
C     1.111000000     0.607000000    -5.559000000
H     1.967000000     0.398000000    -6.203000000
C     1.327000000     1.699000000    -4.475000000
C     2.598000000     1.862000000    -3.931000000
H     3.497000000     1.337000000    -4.243000000
H     0.436000000     0.936000000    -6.352000000
C     1.591000000    -1.670000000    -4.705000000
H     2.653000000    -1.459000000    -4.801000000
C     1.283000000    -2.755000000    -3.854000000
C     2.323000000    -3.837000000    -3.526000000
H     3.128000000    -3.902000000    -4.261000000
H     1.922000000    -4.845000000    -3.649000000
C     2.730000000    -3.601000000    -2.030000000
C     3.815000000    -2.843000000    -1.783000000
H     4.404000000    -2.361000000    -2.559000000
C     2.024000000    -4.173000000    -1.011000000
C     2.321000000    -3.902000000     0.281000000
H     1.744000000    -4.238000000     1.138000000
C     3.422000000    -3.066000000     0.536000000
O     3.579000000    -2.723000000     1.862000000
C     3.095000000    -1.454000000     2.229000000
C     2.336000000    -1.451000000     3.532000000
C     2.598000000    -0.416000000     4.442000000
H     3.384000000     0.310000000     4.250000000
C     1.311000000    -2.385000000     3.815000000
H     1.123000000    -3.279000000     3.226000000
O     4.209000000    -0.585000000     2.264000000
H     2.388000000    -1.154000000     1.442000000
C     4.176000000    -2.502000000    -0.478000000
C     5.313000000    -1.605000000    -0.199000000
H     6.008000000    -1.722000000    -1.033000000
H     5.768000000    -1.758000000     0.782000000
C     4.876000000    -0.157000000    -0.057000000
C     4.886000000     0.733000000    -1.100000000
H     5.290000000     0.476000000    -2.076000000
C     4.345000000     0.298000000     1.150000000
C     3.915000000     1.648000000     1.300000000
H     3.546000000     1.984000000     2.265000000
C     3.949000000     2.440000000     0.221000000
O     3.340000000     3.637000000     0.338000000
C     1.958000000     3.685000000    -0.112000000
C     1.102000000     4.297000000     0.982000000
C     1.417000000     4.172000000     2.342000000
H     2.243000000     3.586000000     2.737000000
C     0.038000000     5.092000000     0.651000000
H    -0.292000000     5.056000000    -0.385000000
O     1.948000000     4.367000000    -1.359000000
H     1.552000000     2.684000000    -0.319000000
C     4.356000000     1.989000000    -1.033000000
C     4.238000000     2.877000000    -2.314000000
H     5.047000000     2.593000000    -2.990000000
H     4.383000000     3.930000000    -2.067000000
C     2.842000000     2.832000000    -2.963000000
C     1.809000000     3.664000000    -2.543000000
C     0.551000000     3.547000000    -3.117000000
H    -0.315000000     4.139000000    -2.833000000
C     0.304000000     2.641000000    -4.138000000
O    -1.066000000     2.392000000    -4.393000000
C    -1.720000000     1.236000000    -3.768000000
H    -1.052000000     0.986000000    -2.931000000
C    -3.106000000     1.619000000    -3.285000000
C    -4.057000000     0.569000000    -3.061000000
H    -3.830000000    -0.464000000    -3.311000000
C    -3.290000000     2.942000000    -2.826000000
H    -2.552000000     3.697000000    -3.088000000
C    -4.499000000     3.267000000    -2.225000000
O    -4.792000000     4.559000000    -1.831000000
C    -5.402000000     2.243000000    -1.929000000
H    -6.374000000     2.439000000    -1.484000000
C    -5.189000000     0.889000000    -2.304000000
O    -6.066000000    -0.103000000    -1.968000000
C    -6.036000000    -1.503000000    -2.341000000
C    -5.675000000    -2.415000000    -1.417000000
H    -5.360000000    -2.096000000    -0.427000000
C    -6.301000000    -1.919000000    -3.620000000
H    -6.605000000    -1.239000000    -4.412000000
C    -6.329000000    -3.289000000    -3.908000000
H    -6.820000000    -3.587000000    -4.831000000
C    -6.165000000    -4.201000000    -2.893000000
H    -6.498000000    -5.224000000    -3.049000000
C    -5.665000000    -3.735000000    -1.660000000
O    -5.306000000    -4.677000000    -0.707000000
C    -3.972000000    -4.797000000    -0.349000000
C    -3.711000000    -5.482000000     0.846000000
H    -4.547000000    -5.854000000     1.433000000
C    -2.466000000    -5.829000000     1.334000000
O    -2.385000000    -6.575000000     2.543000000
C    -1.609000000    -6.119000000     3.585000000
C    -1.530000000    -4.814000000     3.953000000
H    -2.153000000    -4.103000000     3.417000000
C    -0.836000000    -7.090000000     4.243000000
H    -0.998000000    -8.145000000     4.035000000
C     0.068000000    -6.708000000     5.271000000
H     0.713000000    -7.418000000     5.783000000
C     0.212000000    -5.365000000     5.623000000
H     0.873000000    -4.919000000     6.362000000
C    -0.571000000    -4.458000000     4.900000000
O    -0.501000000    -3.111000000     5.288000000
C     0.580000000    -2.270000000     4.975000000
C     0.846000000    -1.265000000     5.869000000
H     0.288000000    -1.144000000     6.794000000
C     1.809000000    -0.297000000     5.608000000
O     2.105000000     0.657000000     6.534000000
C     2.295000000     1.985000000     6.360000000
C     1.422000000     2.758000000     5.616000000
H     0.443000000     2.351000000     5.378000000
C     3.415000000     2.591000000     6.910000000
H     4.099000000     2.012000000     7.524000000
C     3.683000000     3.897000000     6.692000000
H     4.559000000     4.358000000     7.142000000
C     2.860000000     4.619000000     5.819000000
H     3.200000000     5.633000000     5.627000000
C     1.717000000     4.071000000     5.308000000
O     0.789000000     4.782000000     4.651000000
C     0.680000000     4.917000000     3.298000000
C    -0.396000000     5.710000000     2.866000000
H    -0.992000000     6.155000000     3.659000000
C    -0.694000000     5.833000000     1.594000000
O    -1.832000000     6.533000000     1.171000000
C    -2.379000000     6.592000000    -0.104000000
C    -2.216000000     7.687000000    -0.926000000
H    -1.539000000     8.464000000    -0.582000000
C    -2.972000000     7.720000000    -2.132000000
H    -2.865000000     8.558000000    -2.817000000
C    -3.861000000     6.632000000    -2.432000000
H    -4.485000000     6.599000000    -3.322000000
C    -3.813000000     5.483000000    -1.635000000
C    -3.181000000     5.509000000    -0.405000000
H    -3.384000000     4.692000000     0.283000000
C    -1.223000000    -1.265000000     0.617000000
H    -1.404000000    -2.241000000     1.059000000
C     0.017000000    -0.951000000     0.071000000
H     0.770000000    -1.730000000     0.156000000
C     0.238000000     0.237000000    -0.529000000
H     1.196000000     0.476000000    -1.046000000
C    -0.707000000     1.231000000    -0.520000000
H    -0.552000000     2.173000000    -1.038000000
C    -1.945000000     0.989000000     0.119000000
H    -2.609000000     1.848000000     0.178000000
C    -2.204000000    -0.296000000     0.677000000
C    -3.479000000    -0.575000000     1.483000000
O    -4.333000000     0.284000000     1.647000000
O    -3.547000000    -1.610000000     2.108000000
O    -6.949000000    -1.016000000     5.266000000
H    -7.141000000    -1.514000000     4.471000000
H    -6.467000000    -0.249000000     4.957000000
O    -7.815000000     2.585000000     3.697000000
H    -8.330000000     3.314000000     3.351000000
H    -7.245000000     2.986000000     4.354000000
O    -6.215000000     3.763000000     5.800000000
H    -5.764000000     3.205000000     6.434000000
H    -5.521000000     4.074000000     5.219000000
O    -7.682000000    -4.964000000     1.627000000
H    -7.975000000    -4.376000000     0.931000000
H    -6.920000000    -4.525000000     2.006000000
O    -3.474000000     0.732000000     6.099000000
H    -2.896000000     0.427000000     5.399000000
H    -4.326000000     0.351000000     5.888000000
O    -2.325000000     3.130000000     4.128000000
H    -2.717000000     2.359000000     4.539000000
H    -1.495000000     2.815000000     3.771000000
O    -4.453000000     4.689000000     3.345000000
H    -4.855000000     4.116000000     2.692000000
H    -3.664000000     4.223000000     3.620000000
O    -7.062000000    -0.367000000     1.004000000
H    -6.232000000     0.074000000     1.182000000
H    -7.171000000    -0.299000000     0.055000000
O    -4.564000000    -5.773000000     4.384000000
H    -4.887000000    -4.921000000     4.091000000
H    -3.907000000    -6.018000000     3.732000000
O    -2.271000000     1.007000000     8.564000000
H    -1.992000000     0.113000000     8.764000000
H    -2.498000000     0.985000000     7.635000000
O    -2.737000000    -2.928000000     7.036000000
H    -1.994000000    -3.183000000     6.488000000
H    -2.365000000    -2.321000000     7.676000000
O    -5.362000000    -3.379000000     3.217000000
H    -4.679000000    -2.751000000     2.982000000
H    -6.179000000    -2.885000000     3.143000000
O    -5.778000000     0.777000000     3.833000000
H    -5.148000000     0.673000000     3.121000000
H    -6.480000000     1.308000000     3.456000000
O    -7.642000000    -2.043000000     2.930000000
H    -8.586000000    -1.970000000     3.072000000
H    -7.451000000    -1.398000000     2.250000000
O    -0.572000000     0.874000000     3.276000000
H    -0.444000000     0.525000000     2.393000000
H    -1.122000000     0.223000000     3.713000000
O    -2.272000000    -0.648000000     4.319000000
H    -2.294000000    -1.213000000     5.091000000
H    -2.925000000    -1.024000000     3.729000000
O    -5.323000000     2.965000000     1.316000000
H    -6.235000000     2.941000000     1.029000000
H    -5.066000000     2.045000000     1.374000000
O    -5.483000000    -2.893000000     6.513000000
H    -5.842000000    -2.540000000     5.699000000
H    -4.551000000    -3.016000000     6.329000000
O    -8.929000000    -0.211000000    -1.107000000
H    -9.272000000    -0.952000000    -1.605000000
H    -9.430000000    -0.217000000    -0.292000000
