215
-1462.44409
C    -2.684000000    -3.978000000     1.583000000
H    -1.785000000    -4.524000000     1.857000000
C    -2.715000000    -3.605000000     0.234000000
C    -3.892000000    -3.033000000    -0.337000000
H    -3.926000000    -2.727000000    -1.379000000
C    -1.482000000    -3.771000000    -0.628000000
O    -0.560000000    -4.724000000    -0.139000000
H    -0.996000000    -2.793000000    -0.759000000
O    -1.714000000    -4.109000000    -1.990000000
C    -1.014000000    -3.355000000    -2.909000000
C    -1.621000000    -2.241000000    -3.429000000
H    -2.599000000    -1.896000000    -3.103000000
C    -0.952000000    -1.493000000    -4.343000000
O    -1.589000000    -0.324000000    -4.632000000
C     0.404000000    -1.660000000    -4.584000000
C     1.200000000    -0.673000000    -5.413000000
H     2.024000000    -1.249000000    -5.840000000
C     1.810000000     0.428000000    -4.588000000
C     3.102000000     0.431000000    -4.050000000
H     3.745000000    -0.402000000    -4.322000000
H     0.656000000    -0.273000000    -6.271000000
C     1.025000000    -2.845000000    -4.142000000
H     2.056000000    -3.125000000    -4.344000000
C     0.318000000    -3.712000000    -3.320000000
C     1.070000000    -4.843000000    -2.625000000
H     1.875000000    -5.105000000    -3.315000000
H     0.371000000    -5.677000000    -2.540000000
C     1.598000000    -4.432000000    -1.282000000
C     2.906000000    -3.976000000    -1.189000000
H     3.539000000    -4.052000000    -2.069000000
C     0.809000000    -4.424000000    -0.117000000
C     1.304000000    -4.032000000     1.110000000
H     0.620000000    -3.954000000     1.951000000
C     2.571000000    -3.448000000     1.181000000
O     3.068000000    -3.048000000     2.375000000
C     2.965000000    -1.707000000     2.794000000
C     2.415000000    -1.471000000     4.146000000
C     2.628000000    -0.287000000     4.822000000
H     3.385000000     0.456000000     4.583000000
C     1.486000000    -2.355000000     4.710000000
H     1.220000000    -3.278000000     4.202000000
O     4.321000000    -1.178000000     2.669000000
H     2.314000000    -1.158000000     2.097000000
C     3.444000000    -3.545000000     0.084000000
C     4.779000000    -2.935000000     0.176000000
H     5.465000000    -3.145000000    -0.647000000
H     5.284000000    -3.333000000     1.059000000
C     4.749000000    -1.366000000     0.229000000
C     5.011000000    -0.697000000    -0.998000000
H     5.198000000    -1.277000000    -1.899000000
C     4.535000000    -0.616000000     1.372000000
C     4.367000000     0.738000000     1.343000000
H     4.034000000     1.281000000     2.224000000
C     4.409000000     1.377000000     0.062000000
O     3.949000000     2.688000000     0.016000000
C     2.603000000     3.010000000    -0.313000000
C     1.956000000     4.131000000     0.427000000
C     2.022000000     4.044000000     1.850000000
H     2.543000000     3.178000000     2.251000000
C     1.352000000     5.185000000    -0.225000000
H     1.388000000     5.350000000    -1.299000000
O     2.704000000     3.306000000    -1.697000000
H     1.882000000     2.179000000    -0.286000000
C     4.739000000     0.659000000    -1.094000000
C     4.860000000     1.313000000    -2.444000000
H     5.461000000     0.668000000    -3.089000000
H     5.310000000     2.304000000    -2.359000000
C     3.468000000     1.405000000    -3.077000000
C     2.517000000     2.373000000    -2.686000000
C     1.343000000     2.484000000    -3.394000000
H     0.669000000     3.279000000    -3.086000000
C     1.027000000     1.521000000    -4.310000000
O    -0.247000000     1.573000000    -4.715000000
C    -1.275000000     0.901000000    -3.931000000
H    -0.884000000     0.633000000    -2.939000000
C    -2.563000000     1.684000000    -3.812000000
C    -3.807000000     1.122000000    -3.917000000
H    -3.998000000     0.120000000    -4.294000000
C    -2.484000000     2.892000000    -3.180000000
H    -1.503000000     3.222000000    -2.847000000
C    -3.680000000     3.553000000    -2.793000000
O    -3.644000000     4.709000000    -2.001000000
C    -4.888000000     3.032000000    -3.098000000
H    -5.750000000     3.510000000    -2.638000000
C    -4.958000000     1.740000000    -3.489000000
O    -6.201000000     1.085000000    -3.668000000
C    -6.564000000    -0.091000000    -3.039000000
C    -6.046000000    -0.523000000    -1.837000000
H    -5.344000000     0.200000000    -1.431000000
C    -7.380000000    -1.007000000    -3.776000000
H    -7.806000000    -0.719000000    -4.733000000
C    -7.673000000    -2.300000000    -3.207000000
H    -8.312000000    -2.990000000    -3.752000000
C    -7.183000000    -2.704000000    -1.965000000
H    -7.386000000    -3.678000000    -1.528000000
C    -6.427000000    -1.728000000    -1.233000000
O    -6.089000000    -2.010000000     0.056000000
C    -4.958000000    -2.742000000     0.509000000
C    -4.911000000    -3.230000000     1.812000000
H    -5.842000000    -3.180000000     2.371000000
C    -3.779000000    -3.820000000     2.343000000
O    -3.774000000    -4.305000000     3.616000000
C    -2.523000000    -4.606000000     4.270000000
C    -1.952000000    -3.679000000     5.141000000
H    -2.448000000    -2.721000000     5.281000000
C    -1.878000000    -5.830000000     4.035000000
H    -2.380000000    -6.602000000     3.457000000
C    -0.633000000    -6.100000000     4.637000000
H    -0.142000000    -7.037000000     4.385000000
C    -0.095000000    -5.224000000     5.561000000
H     0.747000000    -5.460000000     6.208000000
C    -0.701000000    -3.943000000     5.768000000
O    -0.049000000    -2.946000000     6.550000000
C     0.866000000    -2.077000000     5.954000000
C     1.044000000    -0.842000000     6.569000000
H     0.466000000    -0.630000000     7.464000000
C     2.001000000    -0.025000000     6.038000000
O     2.207000000     1.194000000     6.750000000
C     2.611000000     2.329000000     6.039000000
C     1.759000000     3.215000000     5.447000000
H     0.716000000     2.920000000     5.370000000
C     3.987000000     2.613000000     5.939000000
H     4.644000000     1.918000000     6.457000000
C     4.455000000     3.784000000     5.314000000
H     5.513000000     4.030000000     5.267000000
C     3.589000000     4.547000000     4.577000000
H     4.025000000     5.305000000     3.931000000
C     2.263000000     4.268000000     4.621000000
O     1.400000000     5.061000000     3.938000000
C     1.430000000     5.070000000     2.576000000
C     0.736000000     6.063000000     1.897000000
H     0.275000000     6.850000000     2.489000000
C     0.710000000     6.133000000     0.509000000
O     0.033000000     7.165000000    -0.128000000
C    -0.773000000     6.919000000    -1.187000000
C    -0.869000000     7.801000000    -2.290000000
H    -0.055000000     8.494000000    -2.486000000
C    -1.779000000     7.527000000    -3.316000000
H    -1.848000000     8.138000000    -4.213000000
C    -2.731000000     6.500000000    -3.163000000
H    -3.506000000     6.420000000    -3.922000000
C    -2.641000000     5.622000000    -2.114000000
C    -1.691000000     5.814000000    -1.124000000
H    -1.757000000     5.135000000    -0.278000000
C    -1.856000000    -0.604000000     2.546000000
H    -1.733000000    -1.033000000     3.538000000
C    -0.831000000    -0.759000000     1.674000000
H     0.161000000    -1.010000000     2.040000000
C    -0.914000000    -0.426000000     0.329000000
H    -0.052000000    -0.672000000    -0.288000000
C    -2.009000000     0.247000000    -0.133000000
H    -2.077000000     0.386000000    -1.209000000
C    -3.147000000     0.470000000     0.720000000
H    -4.034000000     0.990000000     0.367000000
C    -3.062000000    -0.005000000     2.097000000
C    -4.065000000     0.458000000     3.148000000
O    -5.186000000     0.923000000     2.842000000
O    -3.689000000     0.572000000     4.282000000
O    -6.845000000     2.330000000     4.911000000
H    -6.321000000     1.802000000     4.309000000
H    -7.017000000     1.749000000     5.652000000
O    -2.357000000     4.393000000     6.366000000
H    -1.969000000     3.523000000     6.280000000
H    -3.245000000     4.295000000     6.023000000
O    -4.825000000     4.654000000     5.383000000
H    -5.398000000     3.892000000     5.467000000
H    -5.243000000     5.195000000     4.713000000
O    -7.524000000     1.523000000     1.708000000
H    -6.659000000     1.322000000     2.066000000
H    -8.074000000     0.790000000     1.985000000
O    -8.257000000    -1.661000000     1.942000000
H    -7.806000000    -1.442000000     1.126000000
H    -8.463000000    -2.592000000     1.860000000
O    -3.536000000     2.131000000     9.242000000
H    -4.102000000     1.944000000     8.492000000
H    -2.992000000     1.349000000     9.332000000
O    -5.981000000    -1.107000000     6.686000000
H    -5.999000000    -0.849000000     5.764000000
H    -6.855000000    -1.460000000     6.853000000
O    -4.627000000     3.626000000     2.542000000
H    -3.772000000     3.758000000     2.951000000
H    -4.742000000     2.676000000     2.528000000
O    -9.131000000     3.456000000     2.756000000
H    -8.478000000     2.880000000     2.358000000
H    -9.024000000     3.323000000     3.698000000
O    -5.316000000    -4.139000000     6.366000000
H    -6.046000000    -3.737000000     5.896000000
H    -4.869000000    -3.405000000     6.787000000
O    -6.795000000    -0.580000000     4.215000000
H    -6.352000000     0.075000000     3.676000000
H    -7.517000000    -0.892000000     3.669000000
O    -8.293000000     4.479000000     5.613000000
H    -7.907000000     4.564000000     6.485000000
H    -7.846000000     3.726000000     5.226000000
O    -2.162000000     4.805000000     3.538000000
H    -1.531000000     4.286000000     3.039000000
H    -1.842000000     4.767000000     4.440000000
O    -0.927000000     2.305000000     3.105000000
H    -1.117000000     1.511000000     2.605000000
H    -1.045000000     2.047000000     4.019000000
O    -1.652000000     1.148000000     5.819000000
H    -2.463000000     0.787000000     5.460000000
H    -1.545000000     0.704000000     6.661000000
O    -4.058000000     6.839000000     2.864000000
H    -4.950000000     6.636000000     3.144000000
H    -3.514000000     6.182000000     3.298000000
O    -4.541000000     1.216000000     6.681000000
H    -5.015000000     0.401000000     6.847000000
H    -4.198000000     1.118000000     5.793000000
O    -6.961000000     3.032000000    -0.693000000
H    -7.579000000     2.866000000    -1.404000000
H    -7.289000000     2.508000000     0.037000000
O    -5.744000000     5.211000000     0.883000000
H    -5.359000000     4.729000000     1.614000000
H    -6.030000000     4.531000000     0.272000000
