215
-1445.38724
C    -0.821000000     0.273000000    -4.184000000
H    -1.359000000    -0.605000000    -3.836000000
C     0.639000000     0.278000000    -4.001000000
C     1.364000000     1.354000000    -4.554000000
H     2.448000000     1.335000000    -4.623000000
C     1.398000000    -0.974000000    -3.377000000
O     0.710000000    -2.209000000    -3.774000000
H     1.179000000    -0.810000000    -2.312000000
O     2.805000000    -1.042000000    -3.666000000
C     3.664000000    -1.253000000    -2.580000000
C     4.278000000    -0.194000000    -1.915000000
H     4.254000000     0.791000000    -2.373000000
C     4.919000000    -0.360000000    -0.710000000
O     5.295000000     0.713000000    -0.102000000
C     4.834000000    -1.630000000    -0.099000000
C     5.300000000    -1.811000000     1.329000000
H     5.685000000    -2.819000000     1.498000000
C     4.328000000    -1.380000000     2.474000000
C     3.532000000    -2.400000000     3.043000000
H     3.609000000    -3.412000000     2.654000000
H     6.138000000    -1.125000000     1.469000000
C     4.268000000    -2.733000000    -0.741000000
H     4.239000000    -3.699000000    -0.243000000
C     3.665000000    -2.506000000    -1.985000000
C     3.042000000    -3.688000000    -2.664000000
H     3.619000000    -4.514000000    -2.243000000
H     3.198000000    -3.663000000    -3.745000000
C     1.567000000    -3.874000000    -2.294000000
C     1.203000000    -4.691000000    -1.239000000
H     1.983000000    -5.185000000    -0.664000000
C     0.532000000    -3.224000000    -2.920000000
C    -0.822000000    -3.579000000    -2.684000000
H    -1.649000000    -3.189000000    -3.272000000
C    -1.147000000    -4.296000000    -1.597000000
O    -2.437000000    -4.264000000    -1.217000000
C    -2.835000000    -3.359000000    -0.209000000
C    -4.201000000    -2.802000000    -0.406000000
C    -5.153000000    -2.424000000     0.616000000
H    -4.936000000    -2.712000000     1.641000000
C    -4.607000000    -2.569000000    -1.727000000
H    -3.894000000    -2.651000000    -2.544000000
O    -2.897000000    -4.032000000     1.080000000
H    -2.192000000    -2.467000000    -0.253000000
C    -0.152000000    -4.809000000    -0.809000000
C    -0.500000000    -5.519000000     0.507000000
H     0.301000000    -6.221000000     0.746000000
H    -1.432000000    -6.089000000     0.475000000
C    -0.634000000    -4.509000000     1.636000000
C     0.517000000    -4.277000000     2.413000000
H     1.450000000    -4.803000000     2.228000000
C    -1.841000000    -3.949000000     1.956000000
C    -1.857000000    -3.052000000     3.002000000
H    -2.739000000    -2.436000000     3.161000000
C    -0.768000000    -2.755000000     3.791000000
O    -0.874000000    -1.713000000     4.658000000
C    -0.210000000    -0.432000000     4.298000000
C    -1.073000000     0.813000000     4.606000000
C    -2.418000000     0.696000000     4.310000000
H    -2.873000000    -0.240000000     3.997000000
C    -0.527000000     2.083000000     4.911000000
H     0.532000000     2.254000000     5.083000000
O     1.125000000    -0.363000000     4.887000000
H    -0.036000000    -0.443000000     3.212000000
C     0.414000000    -3.433000000     3.551000000
C     1.586000000    -3.187000000     4.467000000
H     2.195000000    -4.090000000     4.543000000
H     1.237000000    -2.954000000     5.475000000
C     2.437000000    -2.084000000     3.893000000
C     2.176000000    -0.719000000     4.134000000
C     2.959000000     0.329000000     3.623000000
H     2.697000000     1.349000000     3.893000000
C     4.011000000    -0.039000000     2.716000000
O     4.614000000     1.003000000     2.040000000
C     4.237000000     1.293000000     0.681000000
H     3.289000000     0.782000000     0.456000000
C     3.955000000     2.760000000     0.335000000
C     4.441000000     3.368000000    -0.847000000
H     5.109000000     2.847000000    -1.528000000
C     2.934000000     3.353000000     1.028000000
H     2.487000000     2.904000000     1.911000000
C     2.487000000     4.585000000     0.698000000
O     1.533000000     5.259000000     1.331000000
C     2.997000000     5.221000000    -0.438000000
H     2.648000000     6.222000000    -0.678000000
C     3.971000000     4.633000000    -1.240000000
O     4.336000000     5.174000000    -2.469000000
C     3.964000000     4.810000000    -3.748000000
C     2.769000000     4.264000000    -4.179000000
H     1.836000000     4.232000000    -3.622000000
C     4.975000000     4.994000000    -4.681000000
H     5.826000000     5.619000000    -4.424000000
C     4.741000000     4.595000000    -6.058000000
H     5.491000000     4.950000000    -6.761000000
C     3.559000000     4.049000000    -6.518000000
H     3.291000000     3.853000000    -7.553000000
C     2.581000000     3.909000000    -5.558000000
O     1.349000000     3.401000000    -5.897000000
C     0.664000000     2.353000000    -5.259000000
C    -0.705000000     2.331000000    -5.358000000
H    -1.166000000     3.124000000    -5.942000000
C    -1.454000000     1.343000000    -4.832000000
O    -2.769000000     1.347000000    -4.956000000
C    -3.515000000     0.121000000    -5.096000000
C    -4.446000000    -0.260000000    -4.125000000
H    -4.479000000     0.214000000    -3.147000000
C    -3.433000000    -0.578000000    -6.296000000
H    -2.801000000    -0.172000000    -7.082000000
C    -4.279000000    -1.732000000    -6.544000000
H    -4.269000000    -2.234000000    -7.508000000
C    -5.225000000    -2.041000000    -5.588000000
H    -5.910000000    -2.873000000    -5.733000000
C    -5.296000000    -1.327000000    -4.390000000
O    -6.223000000    -1.799000000    -3.443000000
C    -5.817000000    -2.015000000    -2.079000000
C    -6.641000000    -1.612000000    -1.049000000
H    -7.619000000    -1.285000000    -1.393000000
C    -6.383000000    -1.783000000     0.318000000
O    -7.276000000    -1.358000000     1.367000000
C    -6.732000000    -0.891000000     2.544000000
C    -6.014000000     0.301000000     2.578000000
H    -5.924000000     0.912000000     1.683000000
C    -6.741000000    -1.710000000     3.678000000
H    -7.095000000    -2.737000000     3.639000000
C    -6.046000000    -1.376000000     4.857000000
H    -6.006000000    -1.991000000     5.752000000
C    -5.416000000    -0.158000000     4.937000000
H    -4.839000000     0.089000000     5.825000000
C    -5.301000000     0.631000000     3.766000000
O    -4.534000000     1.788000000     3.786000000
C    -3.276000000     1.861000000     4.349000000
C    -2.730000000     3.089000000     4.811000000
H    -3.393000000     3.946000000     4.738000000
C    -1.356000000     3.159000000     5.078000000
O    -0.836000000     4.425000000     5.375000000
C     0.250000000     4.906000000     4.753000000
C     1.332000000     5.459000000     5.482000000
H     1.324000000     5.496000000     6.569000000
C     2.415000000     5.926000000     4.792000000
H     3.216000000     6.363000000     5.382000000
C     2.457000000     5.835000000     3.398000000
H     3.279000000     6.221000000     2.800000000
C     1.397000000     5.359000000     2.678000000
C     0.315000000     4.814000000     3.373000000
H    -0.557000000     4.399000000     2.874000000
C    -1.993000000     0.733000000     0.327000000
H    -3.013000000     0.740000000     0.703000000
C    -1.074000000    -0.280000000     0.655000000
H    -1.311000000    -1.076000000     1.355000000
C     0.208000000    -0.107000000     0.209000000
H     0.936000000    -0.878000000     0.447000000
C     0.590000000     1.025000000    -0.532000000
H     1.627000000     1.130000000    -0.837000000
C    -0.297000000     2.047000000    -0.768000000
H     0.197000000     2.924000000    -1.178000000
C    -1.630000000     1.889000000    -0.393000000
C    -2.622000000     3.038000000    -0.552000000
O    -2.281000000     4.172000000    -0.783000000
O    -3.794000000     2.761000000    -0.561000000
O    -7.860000000     1.138000000    -3.480000000
H    -7.234000000     0.902000000    -2.796000000
H    -7.442000000     1.860000000    -3.950000000
O    -4.454000000     7.187000000     2.246000000
H    -5.260000000     6.953000000     1.788000000
H    -3.948000000     7.685000000     1.604000000
O    -3.664000000     8.337000000    -0.186000000
H    -3.365000000     9.031000000    -0.772000000
H    -3.588000000     7.536000000    -0.704000000
O    -4.071000000     6.051000000    -1.619000000
H    -3.445000000     5.394000000    -1.312000000
H    -4.256000000     5.800000000    -2.524000000
O    -4.787000000     2.437000000    -7.256000000
H    -4.666000000     3.304000000    -7.643000000
H    -4.113000000     2.381000000    -6.578000000
O    -6.765000000     6.223000000     1.293000000
H    -6.779000000     6.255000000     0.337000000
H    -6.467000000     5.337000000     1.499000000
O    -6.648000000     7.072000000    -1.354000000
H    -6.870000000     7.958000000    -1.067000000
H    -5.692000000     7.045000000    -1.332000000
O    -5.172000000     6.175000000    -4.887000000
H    -5.675000000     6.725000000    -4.286000000
H    -5.826000000     5.615000000    -5.304000000
O    -6.888000000     4.000000000    -1.123000000
H    -6.098000000     4.484000000    -1.364000000
H    -7.604000000     4.505000000    -1.507000000
O     0.084000000     7.880000000     0.631000000
H     0.601000000     7.804000000     1.433000000
H    -0.579000000     7.194000000     0.708000000
O    -2.413000000     5.790000000    -5.391000000
H    -1.982000000     5.580000000    -4.562000000
H    -3.272000000     6.128000000    -5.135000000
O    -1.904000000     5.919000000     1.375000000
H    -2.547000000     5.430000000     1.889000000
H    -1.869000000     5.459000000     0.536000000
O    -1.230000000     5.104000000    -3.015000000
H    -1.457000000     4.671000000    -2.193000000
H    -0.677000000     5.841000000    -2.754000000
O    -4.563000000     3.541000000    -3.270000000
H    -3.725000000     3.582000000    -3.731000000
H    -4.371000000     3.063000000    -2.464000000
O    -6.061000000     1.439000000    -1.016000000
H    -6.393000000     2.314000000    -1.218000000
H    -5.156000000     1.583000000    -0.741000000
O    -6.674000000     3.030000000    -4.838000000
H    -6.833000000     3.527000000    -5.640000000
H    -5.829000000     3.349000000    -4.521000000
O    -7.905000000     3.146000000     1.232000000
H    -7.706000000     3.180000000     0.296000000
H    -7.055000000     3.240000000     1.662000000
O    -5.185000000     3.842000000     1.434000000
H    -4.642000000     3.770000000     0.649000000
H    -4.920000000     3.099000000     1.977000000
O    -2.198000000     7.946000000     3.835000000
H    -2.559000000     7.477000000     3.083000000
H    -1.257000000     7.990000000     3.661000000
