215
-1439.87377
C    -2.653000000    -3.783000000     1.626000000
H    -1.696000000    -4.096000000     2.036000000
C    -2.748000000    -3.799000000     0.296000000
C    -4.001000000    -3.492000000    -0.249000000
H    -4.221000000    -3.526000000    -1.313000000
C    -1.585000000    -3.826000000    -0.640000000
O    -0.764000000    -4.915000000    -0.191000000
H    -1.054000000    -2.935000000    -0.273000000
O    -1.992000000    -3.882000000    -2.007000000
C    -1.277000000    -3.238000000    -2.948000000
C    -1.890000000    -2.164000000    -3.597000000
H    -2.870000000    -1.818000000    -3.279000000
C    -1.225000000    -1.371000000    -4.506000000
O    -1.897000000    -0.216000000    -4.798000000
C     0.122000000    -1.614000000    -4.696000000
C     0.934000000    -0.617000000    -5.634000000
H     1.706000000    -1.223000000    -6.113000000
C     1.472000000     0.490000000    -4.721000000
C     2.776000000     0.461000000    -4.255000000
H     3.325000000    -0.453000000    -4.464000000
H     0.239000000    -0.265000000    -6.400000000
C     0.782000000    -2.707000000    -4.213000000
H     1.859000000    -2.749000000    -4.357000000
C     0.046000000    -3.526000000    -3.336000000
C     0.751000000    -4.672000000    -2.694000000
H     1.568000000    -4.951000000    -3.362000000
H     0.101000000    -5.527000000    -2.499000000
C     1.295000000    -4.367000000    -1.295000000
C     2.571000000    -3.752000000    -1.201000000
H     3.096000000    -3.564000000    -2.134000000
C     0.559000000    -4.589000000    -0.154000000
C     1.143000000    -4.308000000     1.090000000
H     0.527000000    -4.353000000     1.985000000
C     2.403000000    -3.715000000     1.214000000
O     2.894000000    -3.249000000     2.422000000
C     2.857000000    -1.837000000     2.677000000
C     2.365000000    -1.503000000     4.074000000
C     2.743000000    -0.403000000     4.766000000
H     3.419000000     0.293000000     4.277000000
C     1.382000000    -2.299000000     4.654000000
H     0.963000000    -3.175000000     4.165000000
O     4.086000000    -1.255000000     2.392000000
H     2.166000000    -1.393000000     1.946000000
C     3.155000000    -3.557000000     0.060000000
C     4.549000000    -2.939000000     0.053000000
H     5.107000000    -3.355000000    -0.788000000
H     4.954000000    -3.296000000     1.003000000
C     4.592000000    -1.408000000     0.001000000
C     4.720000000    -0.797000000    -1.226000000
H     5.045000000    -1.350000000    -2.104000000
C     4.244000000    -0.645000000     1.109000000
C     4.280000000     0.741000000     1.039000000
H     4.095000000     1.347000000     1.922000000
C     4.392000000     1.374000000    -0.207000000
O     4.184000000     2.691000000    -0.319000000
C     2.763000000     2.975000000    -0.689000000
C     2.185000000     4.060000000     0.233000000
C     2.481000000     4.082000000     1.606000000
H     3.165000000     3.336000000     2.001000000
C     1.170000000     4.813000000    -0.284000000
H     0.884000000     4.630000000    -1.316000000
O     2.886000000     3.400000000    -2.062000000
H     2.252000000     2.006000000    -0.591000000
C     4.694000000     0.610000000    -1.331000000
C     4.707000000     1.148000000    -2.756000000
H     5.215000000     0.551000000    -3.516000000
H     5.220000000     2.112000000    -2.780000000
C     3.267000000     1.406000000    -3.347000000
C     2.472000000     2.482000000    -3.023000000
C     1.175000000     2.575000000    -3.502000000
H     0.552000000     3.445000000    -3.313000000
C     0.733000000     1.619000000    -4.406000000
O    -0.573000000     1.702000000    -4.845000000
C    -1.572000000     0.961000000    -4.127000000
H    -1.095000000     0.606000000    -3.201000000
C    -2.724000000     1.828000000    -3.626000000
C    -3.759000000     1.208000000    -2.941000000
H    -3.740000000     0.123000000    -2.874000000
C    -2.713000000     3.219000000    -3.616000000
H    -1.949000000     3.783000000    -4.146000000
C    -3.747000000     3.964000000    -3.055000000
O    -3.742000000     5.357000000    -3.108000000
C    -4.835000000     3.268000000    -2.465000000
H    -5.589000000     3.855000000    -1.946000000
C    -4.825000000     1.892000000    -2.372000000
O    -5.811000000     1.287000000    -1.801000000
C    -6.117000000     0.008000000    -2.016000000
C    -6.132000000    -0.855000000    -0.912000000
H    -5.615000000    -0.647000000     0.021000000
C    -6.545000000    -0.402000000    -3.306000000
H    -6.615000000     0.165000000    -4.231000000
C    -7.064000000    -1.740000000    -3.437000000
H    -7.541000000    -2.154000000    -4.322000000
C    -7.084000000    -2.566000000    -2.306000000
H    -7.412000000    -3.601000000    -2.358000000
C    -6.571000000    -2.152000000    -1.045000000
O    -6.413000000    -3.031000000    -0.022000000
C    -5.140000000    -3.253000000     0.533000000
C    -5.009000000    -3.337000000     1.890000000
H    -5.886000000    -3.042000000     2.461000000
C    -3.761000000    -3.610000000     2.428000000
O    -3.664000000    -3.541000000     3.792000000
C    -2.709000000    -4.071000000     4.678000000
C    -1.787000000    -3.216000000     5.213000000
H    -1.712000000    -2.180000000     4.893000000
C    -2.749000000    -5.424000000     4.972000000
H    -3.580000000    -6.040000000     4.637000000
C    -1.787000000    -5.893000000     5.864000000
H    -1.826000000    -6.964000000     6.044000000
C    -0.836000000    -5.058000000     6.413000000
H     0.070000000    -5.323000000     6.952000000
C    -0.847000000    -3.688000000     6.156000000
O     0.148000000    -2.869000000     6.718000000
C     0.969000000    -2.003000000     5.942000000
C     1.566000000    -0.988000000     6.702000000
H     1.285000000    -0.884000000     7.747000000
C     2.342000000    -0.078000000     6.054000000
O     2.721000000     1.071000000     6.667000000
C     3.116000000     2.191000000     5.912000000
C     2.247000000     3.055000000     5.139000000
H     1.168000000     3.111000000     5.260000000
C     4.528000000     2.346000000     5.838000000
H     5.131000000     1.601000000     6.352000000
C     5.095000000     3.395000000     5.090000000
H     6.172000000     3.501000000     4.984000000
C     4.215000000     4.345000000     4.460000000
H     4.641000000     5.159000000     3.879000000
C     2.871000000     4.120000000     4.512000000
O     2.089000000     5.019000000     3.838000000
C     1.902000000     5.018000000     2.444000000
C     0.953000000     5.927000000     1.879000000
H     0.309000000     6.447000000     2.584000000
C     0.549000000     5.806000000     0.540000000
O    -0.469000000     6.539000000     0.046000000
C    -0.835000000     6.547000000    -1.239000000
C    -0.068000000     7.093000000    -2.244000000
H     0.897000000     7.544000000    -2.028000000
C    -0.600000000     7.118000000    -3.555000000
H    -0.001000000     7.532000000    -4.362000000
C    -1.919000000     6.694000000    -3.831000000
H    -2.303000000     6.782000000    -4.844000000
C    -2.597000000     6.036000000    -2.820000000
C    -2.052000000     5.919000000    -1.518000000
H    -2.523000000     5.303000000    -0.757000000
C    -2.128000000    -0.097000000     1.508000000
H    -2.507000000    -0.754000000     2.287000000
C    -0.911000000    -0.363000000     0.894000000
H    -0.294000000    -1.190000000     1.236000000
C    -0.347000000     0.444000000    -0.055000000
H     0.594000000     0.145000000    -0.511000000
C    -0.960000000     1.578000000    -0.407000000
H    -0.506000000     2.213000000    -1.163000000
C    -2.232000000     1.850000000     0.102000000
H    -2.723000000     2.763000000    -0.227000000
C    -2.834000000     1.031000000     1.060000000
C    -4.184000000     1.377000000     1.609000000
O    -4.882000000     2.233000000     1.048000000
O    -4.544000000     0.917000000     2.693000000
O    -7.321000000    -2.247000000     4.483000000
H    -6.398000000    -2.326000000     4.722000000
H    -7.717000000    -3.066000000     4.782000000
O    -5.508000000     2.895000000     6.299000000
H    -6.003000000     2.447000000     5.613000000
H    -4.608000000     2.591000000     6.183000000
O    -2.576000000     1.892000000     6.769000000
H    -2.818000000     1.527000000     7.621000000
H    -2.890000000     1.247000000     6.135000000
O    -8.717000000     4.198000000     3.889000000
H    -8.402000000     3.355000000     4.213000000
H    -9.246000000     4.549000000     4.606000000
O    -7.569000000     0.076000000     7.080000000
H    -7.406000000     0.172000000     6.141000000
H    -8.521000000     0.011000000     7.152000000
O    -7.150000000    -0.393000000     2.507000000
H    -7.175000000    -0.981000000     3.263000000
H    -6.217000000    -0.268000000     2.332000000
O    -8.670000000     5.110000000    -0.781000000
H    -7.984000000     5.676000000    -0.428000000
H    -8.270000000     4.240000000    -0.812000000
O    -3.950000000     5.190000000     1.169000000
H    -3.695000000     5.102000000     2.087000000
H    -4.470000000     4.406000000     0.989000000
O    -4.269000000     7.909000000     1.060000000
H    -3.672000000     8.199000000     1.749000000
H    -4.280000000     6.955000000     1.138000000
O    -3.218000000    -0.066000000     4.678000000
H    -3.787000000     0.429000000     4.089000000
H    -3.780000000    -0.758000000     5.027000000
O    -6.502000000     1.797000000     4.354000000
H    -5.900000000     1.562000000     3.648000000
H    -7.335000000     1.400000000     4.101000000
O    -2.328000000     4.907000000     3.348000000
H    -1.815000000     5.614000000     3.739000000
H    -1.674000000     4.281000000     3.036000000
O    -0.492000000     2.810000000     2.712000000
H    -0.585000000     1.900000000     2.991000000
H    -0.975000000     2.859000000     1.887000000
O    -4.948000000     5.456000000     4.814000000
H    -4.267000000     5.528000000     4.145000000
H    -4.774000000     4.619000000     5.244000000
O   -10.005000000     2.576000000     1.650000000
H    -9.305000000     2.816000000     2.258000000
H   -10.759000000     2.399000000     2.212000000
O    -9.523000000    -0.163000000     1.276000000
H    -8.712000000    -0.292000000     1.768000000
H    -9.736000000     0.761000000     1.403000000
O    -4.975000000    -1.523000000     6.323000000
H    -4.556000000    -2.071000000     6.986000000
H    -5.785000000    -1.223000000     6.737000000
O    -8.021000000     2.308000000    -0.951000000
H    -7.136000000     1.998000000    -1.141000000
H    -8.046000000     2.396000000     0.002000000
O    -7.144000000     3.362000000     1.495000000
H    -7.122000000     3.914000000     2.276000000
H    -6.271000000     2.972000000     1.452000000
