215
-1460.80554
C    -2.194000000    -4.700000000     0.654000000
H    -1.285000000    -5.269000000     0.834000000
C    -2.143000000    -3.761000000    -0.391000000
C    -3.273000000    -2.984000000    -0.684000000
H    -3.209000000    -2.281000000    -1.510000000
C    -0.899000000    -3.536000000    -1.270000000
O    -0.064000000    -4.620000000    -0.953000000
H    -0.365000000    -2.612000000    -1.002000000
O    -1.174000000    -3.551000000    -2.685000000
C    -0.539000000    -2.726000000    -3.525000000
C    -1.260000000    -1.602000000    -3.993000000
H    -2.287000000    -1.439000000    -3.677000000
C    -0.627000000    -0.606000000    -4.688000000
O    -1.332000000     0.518000000    -4.965000000
C     0.779000000    -0.696000000    -4.896000000
C     1.592000000     0.476000000    -5.412000000
H     2.506000000     0.122000000    -5.895000000
C     1.856000000     1.430000000    -4.314000000
C     3.121000000     1.377000000    -3.680000000
H     3.832000000     0.644000000    -4.055000000
H     1.098000000     1.021000000    -6.220000000
C     1.487000000    -1.831000000    -4.484000000
H     2.562000000    -1.958000000    -4.576000000
C     0.816000000    -2.876000000    -3.774000000
C     1.608000000    -4.129000000    -3.291000000
H     2.408000000    -4.273000000    -4.020000000
H     1.084000000    -5.082000000    -3.388000000
C     2.117000000    -3.992000000    -1.865000000
C     3.398000000    -3.476000000    -1.593000000
H     3.927000000    -3.107000000    -2.467000000
C     1.260000000    -4.363000000    -0.804000000
C     1.643000000    -4.221000000     0.471000000
H     0.956000000    -4.535000000     1.252000000
C     2.894000000    -3.621000000     0.800000000
O     3.116000000    -3.320000000     2.168000000
C     2.935000000    -1.927000000     2.618000000
C     2.154000000    -1.879000000     3.912000000
C     2.301000000    -0.789000000     4.772000000
H     3.012000000    -0.018000000     4.486000000
C     1.303000000    -2.979000000     4.268000000
H     1.193000000    -3.903000000     3.707000000
O     4.153000000    -1.245000000     2.634000000
H     2.305000000    -1.425000000     1.869000000
C     3.758000000    -3.271000000    -0.251000000
C     5.024000000    -2.553000000     0.009000000
H     5.801000000    -2.828000000    -0.706000000
H     5.536000000    -2.906000000     0.906000000
C     4.766000000    -1.056000000     0.204000000
C     4.768000000    -0.229000000    -0.888000000
H     5.093000000    -0.555000000    -1.873000000
C     4.424000000    -0.526000000     1.466000000
C     4.007000000     0.815000000     1.611000000
H     3.652000000     1.163000000     2.578000000
C     4.123000000     1.652000000     0.508000000
O     3.661000000     2.965000000     0.640000000
C     2.433000000     3.220000000     0.052000000
C     1.521000000     4.077000000     0.997000000
C     1.304000000     3.673000000     2.295000000
H     1.850000000     2.862000000     2.772000000
C     0.682000000     5.148000000     0.559000000
H     0.788000000     5.351000000    -0.504000000
O     2.668000000     4.022000000    -1.162000000
H     1.845000000     2.340000000    -0.248000000
C     4.580000000     1.153000000    -0.718000000
C     4.769000000     2.091000000    -1.868000000
H     5.518000000     1.734000000    -2.578000000
H     5.119000000     3.089000000    -1.594000000
C     3.414000000     2.212000000    -2.616000000
C     2.486000000     3.244000000    -2.310000000
C     1.340000000     3.463000000    -3.034000000
H     0.742000000     4.370000000    -3.003000000
C     0.994000000     2.454000000    -3.974000000
O    -0.259000000     2.514000000    -4.592000000
C    -1.275000000     1.626000000    -3.974000000
H    -1.036000000     1.219000000    -2.980000000
C    -2.656000000     2.198000000    -3.713000000
C    -3.776000000     1.391000000    -3.844000000
H    -3.841000000     0.438000000    -4.363000000
C    -2.720000000     3.482000000    -3.238000000
H    -1.796000000     4.021000000    -3.044000000
C    -3.913000000     3.987000000    -2.866000000
O    -3.963000000     5.308000000    -2.386000000
C    -5.102000000     3.235000000    -3.044000000
H    -6.042000000     3.669000000    -2.713000000
C    -4.994000000     1.875000000    -3.438000000
O    -6.157000000     1.163000000    -3.457000000
C    -6.122000000    -0.226000000    -3.181000000
C    -5.904000000    -0.650000000    -1.810000000
H    -5.606000000     0.078000000    -1.060000000
C    -6.507000000    -1.160000000    -4.131000000
H    -6.663000000    -0.805000000    -5.146000000
C    -6.546000000    -2.513000000    -3.818000000
H    -6.704000000    -3.277000000    -4.575000000
C    -6.379000000    -2.906000000    -2.450000000
H    -6.409000000    -3.963000000    -2.198000000
C    -5.998000000    -1.991000000    -1.451000000
O    -5.544000000    -2.350000000    -0.175000000
C    -4.454000000    -3.192000000     0.022000000
C    -4.505000000    -4.109000000     1.071000000
H    -5.436000000    -4.160000000     1.630000000
C    -3.402000000    -4.880000000     1.434000000
O    -3.394000000    -5.759000000     2.516000000
C    -2.335000000    -5.883000000     3.510000000
C    -1.879000000    -4.731000000     4.134000000
H    -2.142000000    -3.693000000     3.945000000
C    -1.857000000    -7.175000000     3.895000000
H    -2.318000000    -8.077000000     3.502000000
C    -0.958000000    -7.258000000     4.949000000
H    -0.667000000    -8.235000000     5.325000000
C    -0.412000000    -6.051000000     5.490000000
H     0.324000000    -6.139000000     6.286000000
C    -0.839000000    -4.778000000     5.029000000
O    -0.481000000    -3.718000000     5.767000000
C     0.538000000    -2.830000000     5.412000000
C     0.768000000    -1.768000000     6.276000000
H     0.143000000    -1.737000000     7.165000000
C     1.667000000    -0.751000000     6.025000000
O     1.821000000     0.264000000     6.965000000
C     2.116000000     1.467000000     6.494000000
C     1.151000000     2.096000000     5.702000000
H     0.303000000     1.512000000     5.356000000
C     3.272000000     2.144000000     6.876000000
H     4.053000000     1.702000000     7.490000000
C     3.450000000     3.470000000     6.413000000
H     4.412000000     3.937000000     6.608000000
C     2.474000000     4.146000000     5.695000000
H     2.589000000     5.168000000     5.344000000
C     1.302000000     3.428000000     5.359000000
O     0.382000000     4.070000000     4.545000000
C     0.492000000     4.352000000     3.217000000
C    -0.353000000     5.386000000     2.770000000
H    -1.020000000     5.908000000     3.452000000
C    -0.277000000     5.742000000     1.425000000
O    -1.050000000     6.844000000     1.037000000
C    -1.504000000     6.943000000    -0.316000000
C    -0.743000000     7.596000000    -1.211000000
H     0.131000000     8.154000000    -0.887000000
C    -1.000000000     7.482000000    -2.590000000
H    -0.424000000     7.912000000    -3.405000000
C    -2.204000000     6.807000000    -2.939000000
H    -2.473000000     6.768000000    -3.991000000
C    -2.882000000     6.063000000    -2.002000000
C    -2.568000000     6.143000000    -0.695000000
H    -3.281000000     5.648000000    -0.040000000
C    -2.639000000    -0.018000000     1.137000000
H    -3.235000000    -0.728000000     1.704000000
C    -1.406000000    -0.346000000     0.525000000
H    -0.988000000    -1.334000000     0.698000000
C    -0.579000000     0.608000000    -0.067000000
H     0.406000000     0.343000000    -0.512000000
C    -1.057000000     1.872000000    -0.145000000
H    -0.515000000     2.589000000    -0.756000000
C    -2.330000000     2.260000000     0.283000000
H    -2.773000000     3.231000000     0.073000000
C    -3.194000000     1.263000000     0.953000000
C    -4.603000000     1.633000000     1.393000000
O    -5.042000000     2.680000000     0.988000000
O    -5.366000000     0.881000000     2.018000000
O    -5.684000000    -1.573000000     2.902000000
H    -5.709000000    -0.687000000     2.541000000
H    -6.325000000    -1.560000000     3.613000000
O    -3.171000000     5.822000000     4.841000000
H    -2.460000000     5.904000000     5.476000000
H    -3.848000000     6.419000000     5.162000000
O    -4.553000000    -2.725000000     5.055000000
H    -4.675000000    -2.243000000     4.237000000
H    -3.806000000    -2.298000000     5.475000000
O    -7.832000000     0.386000000     0.147000000
H    -7.714000000     1.270000000    -0.200000000
H    -7.256000000     0.349000000     0.910000000
O    -7.774000000    -1.003000000     4.533000000
H    -7.180000000    -1.001000000     5.283000000
H    -8.513000000    -1.543000000     4.814000000
O    -4.764000000     5.027000000     2.152000000
H    -4.648000000     4.586000000     2.994000000
H    -4.842000000     4.315000000     1.517000000
O    -8.197000000    -2.934000000     1.105000000
H    -7.975000000    -3.810000000     0.790000000
H    -7.469000000    -2.383000000     0.817000000
O    -9.739000000     4.461000000     3.390000000
H    -8.953000000     4.129000000     2.957000000
H    -9.535000000     5.374000000     3.591000000
O    -3.694000000     7.625000000     2.732000000
H    -3.034000000     7.779000000     3.407000000
H    -3.858000000     6.683000000     2.768000000
O    -3.263000000     0.239000000     4.022000000
H    -3.332000000     1.191000000     3.945000000
H    -3.930000000    -0.099000000     3.424000000
O    -5.881000000     2.416000000     4.167000000
H    -5.059000000     2.902000000     4.101000000
H    -5.806000000     1.727000000     3.507000000
O    -6.705000000     7.291000000     1.963000000
H    -6.873000000     6.968000000     1.077000000
H    -5.790000000     7.065000000     2.131000000
O    -3.325000000     3.156000000     3.985000000
H    -3.177000000     4.043000000     4.313000000
H    -2.545000000     2.958000000     3.467000000
O    -0.933000000     1.548000000     3.256000000
H    -0.896000000     1.242000000     2.349000000
H    -1.334000000     0.824000000     3.736000000
O    -8.867000000     2.446000000    -2.143000000
H    -9.533000000     3.134000000    -2.143000000
H    -8.329000000     2.634000000    -1.374000000
O    -8.446000000     1.554000000     4.017000000
H    -7.579000000     1.940000000     4.139000000
H    -8.292000000     0.609000000     4.029000000
O    -2.049000000     0.050000000     6.459000000
H    -2.605000000     0.251000000     5.706000000
H    -2.619000000    -0.435000000     7.055000000
O   -10.153000000     0.881000000     1.448000000
H    -9.344000000     0.539000000     1.068000000
H    -9.886000000     1.248000000     2.291000000
O    -7.551000000     3.291000000     0.177000000
H    -7.395000000     4.222000000     0.019000000
H    -6.753000000     2.985000000     0.609000000
