215
-1446.73943
C    -2.339000000    -5.045000000     0.601000000
H    -1.544000000    -5.696000000     0.956000000
C    -2.419000000    -4.320000000    -0.636000000
C    -3.561000000    -3.580000000    -0.898000000
H    -3.533000000    -2.814000000    -1.669000000
C    -1.132000000    -4.042000000    -1.446000000
O    -0.125000000    -5.072000000    -1.170000000
H    -0.695000000    -3.075000000    -1.158000000
O    -1.382000000    -3.909000000    -2.887000000
C    -0.725000000    -2.812000000    -3.553000000
C    -1.438000000    -1.617000000    -3.793000000
H    -2.473000000    -1.492000000    -3.485000000
C    -0.865000000    -0.565000000    -4.426000000
O    -1.604000000     0.606000000    -4.592000000
C     0.500000000    -0.632000000    -4.786000000
C     1.120000000     0.595000000    -5.426000000
H     2.005000000     0.218000000    -5.943000000
C     1.584000000     1.701000000    -4.446000000
C     2.824000000     1.617000000    -3.909000000
H     3.492000000     0.807000000    -4.190000000
H     0.465000000     1.033000000    -6.183000000
C     1.162000000    -1.809000000    -4.497000000
H     2.221000000    -1.832000000    -4.742000000
C     0.604000000    -2.952000000    -3.883000000
C     1.471000000    -4.159000000    -3.523000000
H     2.239000000    -4.153000000    -4.299000000
H     0.879000000    -5.021000000    -3.838000000
C     1.944000000    -4.213000000    -2.088000000
C     3.126000000    -3.442000000    -1.859000000
H     3.702000000    -3.177000000    -2.742000000
C     1.185000000    -4.713000000    -1.003000000
C     1.604000000    -4.429000000     0.247000000
H     0.990000000    -4.822000000     1.053000000
C     2.717000000    -3.684000000     0.534000000
O     2.926000000    -3.375000000     1.871000000
C     2.828000000    -1.994000000     2.194000000
C     2.309000000    -1.985000000     3.694000000
C     2.638000000    -0.886000000     4.547000000
H     3.390000000    -0.154000000     4.264000000
C     1.275000000    -2.916000000     4.055000000
H     0.952000000    -3.652000000     3.323000000
O     4.099000000    -1.414000000     2.173000000
H     2.056000000    -1.501000000     1.586000000
C     3.542000000    -3.257000000    -0.536000000
C     4.819000000    -2.557000000    -0.322000000
H     5.475000000    -2.839000000    -1.147000000
H     5.284000000    -2.973000000     0.575000000
C     4.636000000    -1.069000000    -0.126000000
C     4.625000000    -0.187000000    -1.159000000
H     4.746000000    -0.542000000    -2.179000000
C     4.285000000    -0.585000000     1.125000000
C     4.087000000     0.758000000     1.423000000
H     3.895000000     1.120000000     2.430000000
C     4.099000000     1.655000000     0.377000000
O     3.782000000     2.990000000     0.578000000
C     2.475000000     3.447000000     0.103000000
C     1.787000000     4.371000000     1.095000000
C     2.102000000     4.171000000     2.460000000
H     2.754000000     3.365000000     2.787000000
C     0.907000000     5.352000000     0.650000000
H     0.720000000     5.546000000    -0.403000000
O     2.626000000     4.101000000    -1.191000000
H     1.811000000     2.577000000    -0.014000000
C     4.345000000     1.168000000    -0.948000000
C     4.591000000     2.152000000    -2.141000000
H     5.408000000     1.846000000    -2.797000000
H     4.906000000     3.129000000    -1.768000000
C     3.291000000     2.470000000    -2.877000000
C     2.385000000     3.402000000    -2.355000000
C     1.125000000     3.552000000    -2.894000000
H     0.483000000     4.179000000    -2.281000000
C     0.701000000     2.646000000    -3.881000000
O    -0.591000000     2.645000000    -4.239000000
C    -1.440000000     1.669000000    -3.648000000
H    -0.931000000     1.226000000    -2.779000000
C    -2.773000000     2.182000000    -3.163000000
C    -3.896000000     1.389000000    -3.306000000
H    -3.769000000     0.426000000    -3.793000000
C    -2.835000000     3.505000000    -2.657000000
H    -1.917000000     4.069000000    -2.510000000
C    -4.057000000     4.007000000    -2.240000000
O    -4.112000000     5.318000000    -1.769000000
C    -5.166000000     3.140000000    -2.317000000
H    -6.084000000     3.593000000    -1.951000000
C    -5.146000000     1.853000000    -2.784000000
O    -6.358000000     1.181000000    -2.791000000
C    -6.344000000    -0.131000000    -2.720000000
C    -6.283000000    -0.767000000    -1.514000000
H    -6.168000000    -0.190000000    -0.600000000
C    -6.625000000    -0.869000000    -3.860000000
H    -6.839000000    -0.276000000    -4.745000000
C    -6.555000000    -2.216000000    -3.943000000
H    -6.808000000    -2.713000000    -4.876000000
C    -6.342000000    -2.894000000    -2.754000000
H    -6.266000000    -3.978000000    -2.788000000
C    -6.176000000    -2.172000000    -1.552000000
O    -5.806000000    -2.963000000    -0.383000000
C    -4.720000000    -3.694000000    -0.058000000
C    -4.621000000    -4.382000000     1.115000000
H    -5.443000000    -4.394000000     1.826000000
C    -3.460000000    -4.997000000     1.407000000
O    -3.399000000    -5.730000000     2.627000000
C    -2.451000000    -5.731000000     3.618000000
C    -1.803000000    -4.561000000     4.146000000
H    -2.048000000    -3.524000000     3.931000000
C    -2.221000000    -7.026000000     4.020000000
H    -2.779000000    -7.852000000     3.588000000
C    -1.152000000    -7.241000000     4.937000000
H    -0.954000000    -8.247000000     5.297000000
C    -0.501000000    -6.106000000     5.489000000
H     0.242000000    -6.283000000     6.262000000
C    -0.783000000    -4.806000000     5.091000000
O    -0.223000000    -3.759000000     5.785000000
C     0.733000000    -2.849000000     5.346000000
C     0.992000000    -1.707000000     6.119000000
H     0.408000000    -1.561000000     7.024000000
C     1.956000000    -0.745000000     5.793000000
O     2.126000000     0.310000000     6.618000000
C     2.636000000     1.554000000     6.229000000
C     1.772000000     2.577000000     5.847000000
H     0.716000000     2.330000000     5.779000000
C     4.039000000     1.787000000     6.365000000
H     4.749000000     1.128000000     6.858000000
C     4.543000000     2.975000000     5.838000000
H     5.604000000     3.194000000     5.936000000
C     3.695000000     3.940000000     5.369000000
H     4.082000000     4.890000000     5.011000000
C     2.315000000     3.764000000     5.328000000
O     1.551000000     4.742000000     4.815000000
C     1.405000000     4.937000000     3.429000000
C     0.477000000     5.836000000     2.952000000
H    -0.138000000     6.414000000     3.637000000
C     0.212000000     6.058000000     1.617000000
O    -0.686000000     7.010000000     1.189000000
C    -1.279000000     6.898000000    -0.064000000
C    -0.755000000     7.580000000    -1.121000000
H     0.106000000     8.144000000    -0.772000000
C    -1.293000000     7.485000000    -2.410000000
H    -0.812000000     7.886000000    -3.299000000
C    -2.462000000     6.711000000    -2.594000000
H    -2.866000000     6.631000000    -3.600000000
C    -3.063000000     6.122000000    -1.510000000
C    -2.424000000     6.138000000    -0.287000000
H    -2.863000000     5.567000000     0.527000000
C    -1.673000000    -0.867000000     1.130000000
H    -2.058000000    -1.843000000     1.414000000
C    -0.425000000    -0.798000000     0.474000000
H     0.216000000    -1.674000000     0.415000000
C     0.021000000     0.416000000    -0.111000000
H     0.899000000     0.431000000    -0.740000000
C    -0.785000000     1.521000000    -0.191000000
H    -0.423000000     2.459000000    -0.605000000
C    -2.047000000     1.468000000     0.462000000
H    -2.778000000     2.272000000     0.458000000
C    -2.473000000     0.308000000     1.163000000
C    -3.676000000     0.423000000     2.036000000
O    -4.094000000     1.523000000     2.278000000
O    -3.890000000    -0.451000000     2.899000000
O    -6.335000000    -1.224000000     3.225000000
H    -5.420000000    -1.142000000     2.957000000
H    -6.719000000    -0.369000000     3.031000000
O    -1.603000000     4.590000000     5.894000000
H    -0.701000000     4.672000000     6.203000000
H    -1.817000000     5.455000000     5.547000000
O    -7.108000000     3.357000000     4.975000000
H    -6.590000000     4.072000000     4.603000000
H    -6.469000000     2.667000000     5.153000000
O    -4.986000000    -3.622000000     4.779000000
H    -5.281000000    -3.635000000     5.689000000
H    -5.214000000    -2.747000000     4.465000000
O    -8.012000000    -3.004000000     4.222000000
H    -7.536000000    -2.259000000     3.854000000
H    -8.906000000    -2.683000000     4.336000000
O    -3.081000000    -1.383000000     8.107000000
H    -3.031000000    -1.224000000     7.164000000
H    -3.931000000    -1.029000000     8.365000000
O    -9.117000000     0.134000000     0.558000000
H    -8.208000000     0.283000000     0.818000000
H    -9.273000000    -0.791000000     0.749000000
O    -8.589000000    -2.449000000     1.228000000
H    -8.401000000    -3.009000000     0.475000000
H    -7.853000000    -2.592000000     1.822000000
O    -8.126000000    -0.152000000     5.305000000
H    -7.307000000    -0.574000000     5.567000000
H    -8.742000000    -0.875000000     5.189000000
O    -2.873000000     3.872000000     3.092000000
H    -2.080000000     3.429000000     3.392000000
H    -3.509000000     3.168000000     2.967000000
O    -5.193000000     5.148000000     3.804000000
H    -5.674000000     4.905000000     3.013000000
H    -4.313000000     4.798000000     3.666000000
O    -5.559000000    -0.713000000     6.271000000
H    -5.615000000     0.177000000     5.924000000
H    -4.974000000    -1.170000000     5.666000000
O    -5.260000000     1.664000000     4.691000000
H    -4.603000000     1.852000000     5.361000000
H    -4.771000000     1.674000000     3.868000000
O    -6.125000000     4.281000000     1.358000000
H    -6.683000000     4.970000000     0.998000000
H    -6.609000000     3.471000000     1.193000000
O    -2.385000000     1.888000000     5.829000000
H    -2.349000000     2.643000000     6.416000000
H    -1.668000000     2.030000000     5.211000000
O    -0.620000000     1.958000000     3.482000000
H    -1.018000000     1.658000000     2.665000000
H     0.013000000     1.275000000     3.704000000
O    -4.441000000     4.283000000     6.784000000
H    -4.863000000     5.127000000     6.621000000
H    -3.696000000     4.267000000     6.184000000
O    -2.906000000    -0.688000000     5.319000000
H    -2.508000000     0.139000000     5.590000000
H    -3.199000000    -0.530000000     4.421000000
O    -6.770000000     1.496000000     1.945000000
H    -7.117000000     1.588000000     2.832000000
H    -5.868000000     1.810000000     2.007000000
