215
-1488.37142
C    -0.935000000    -0.168000000    -4.551000000
H    -1.529000000    -0.886000000    -3.991000000
C     0.494000000    -0.138000000    -4.515000000
C     1.154000000     0.878000000    -5.202000000
H     2.236000000     0.880000000    -5.098000000
C     1.294000000    -1.151000000    -3.749000000
O     0.947000000    -2.557000000    -4.012000000
H     1.103000000    -0.958000000    -2.683000000
O     2.706000000    -1.009000000    -3.978000000
C     3.621000000    -1.049000000    -2.922000000
C     3.985000000     0.150000000    -2.363000000
H     3.808000000     1.122000000    -2.816000000
C     4.672000000     0.143000000    -1.163000000
O     4.831000000     1.337000000    -0.563000000
C     4.962000000    -1.041000000    -0.405000000
C     5.452000000    -1.043000000     1.015000000
H     5.936000000    -2.015000000     1.129000000
C     4.423000000    -0.823000000     2.083000000
C     3.845000000    -1.895000000     2.696000000
H     4.262000000    -2.880000000     2.501000000
H     6.225000000    -0.272000000     1.016000000
C     4.549000000    -2.249000000    -1.006000000
H     4.601000000    -3.183000000    -0.454000000
C     3.876000000    -2.302000000    -2.216000000
C     3.298000000    -3.564000000    -2.784000000
H     3.881000000    -4.437000000    -2.482000000
H     3.336000000    -3.533000000    -3.875000000
C     1.890000000    -3.877000000    -2.254000000
C     1.704000000    -4.705000000    -1.174000000
H     2.508000000    -5.106000000    -0.562000000
C     0.813000000    -3.357000000    -2.916000000
C    -0.532000000    -3.743000000    -2.657000000
H    -1.345000000    -3.392000000    -3.287000000
C    -0.699000000    -4.540000000    -1.462000000
O    -2.021000000    -4.745000000    -1.028000000
C    -2.545000000    -3.827000000    -0.012000000
C    -3.974000000    -3.401000000    -0.214000000
C    -4.868000000    -2.932000000     0.822000000
H    -4.561000000    -2.988000000     1.863000000
C    -4.302000000    -3.165000000    -1.526000000
H    -3.639000000    -3.443000000    -2.341000000
O    -2.385000000    -4.467000000     1.299000000
H    -1.994000000    -2.876000000    -0.026000000
C     0.385000000    -4.970000000    -0.699000000
C     0.195000000    -5.688000000     0.639000000
H     1.123000000    -6.241000000     0.798000000
H    -0.578000000    -6.454000000     0.545000000
C    -0.034000000    -4.645000000     1.701000000
C     1.092000000    -4.242000000     2.431000000
H     2.036000000    -4.735000000     2.215000000
C    -1.269000000    -4.103000000     1.973000000
C    -1.405000000    -3.238000000     3.060000000
H    -2.328000000    -2.798000000     3.428000000
C    -0.286000000    -2.796000000     3.796000000
O    -0.443000000    -1.681000000     4.653000000
C     0.043000000    -0.413000000     4.180000000
C    -1.024000000     0.721000000     4.335000000
C    -2.330000000     0.577000000     3.948000000
H    -2.577000000    -0.418000000     3.584000000
C    -0.586000000     1.988000000     4.693000000
H     0.469000000     2.193000000     4.857000000
O     1.298000000    -0.124000000     4.803000000
H     0.252000000    -0.489000000     3.102000000
C     0.940000000    -3.402000000     3.549000000
C     2.164000000    -2.924000000     4.300000000
H     2.886000000    -3.741000000     4.266000000
H     1.878000000    -2.701000000     5.330000000
C     2.782000000    -1.704000000     3.672000000
C     2.408000000    -0.342000000     4.005000000
C     2.953000000     0.717000000     3.375000000
H     2.536000000     1.714000000     3.488000000
C     3.971000000     0.463000000     2.457000000
O     4.372000000     1.574000000     1.770000000
C     3.825000000     1.776000000     0.430000000
H     2.879000000     1.237000000     0.278000000
C     3.578000000     3.294000000     0.270000000
C     3.336000000     3.858000000    -0.998000000
H     3.405000000     3.256000000    -1.901000000
C     3.256000000     4.098000000     1.363000000
H     3.408000000     3.649000000     2.342000000
C     2.657000000     5.345000000     1.207000000
O     2.394000000     6.181000000     2.276000000
C     2.291000000     5.853000000    -0.052000000
H     1.721000000     6.765000000    -0.210000000
C     2.716000000     5.116000000    -1.243000000
O     2.107000000     5.505000000    -2.428000000
C     2.482000000     5.084000000    -3.699000000
C     1.669000000     4.178000000    -4.422000000
H     0.733000000     3.897000000    -3.947000000
C     3.647000000     5.517000000    -4.303000000
H     4.285000000     6.216000000    -3.768000000
C     3.926000000     5.191000000    -5.610000000
H     4.843000000     5.567000000    -6.055000000
C     3.154000000     4.252000000    -6.277000000
H     3.325000000     4.031000000    -7.328000000
C     2.005000000     3.689000000    -5.696000000
O     1.118000000     2.951000000    -6.443000000
C     0.476000000     1.895000000    -5.875000000
C    -0.957000000     1.953000000    -5.793000000
H    -1.488000000     2.708000000    -6.366000000
C    -1.610000000     0.959000000    -5.079000000
O    -2.945000000     0.992000000    -4.814000000
C    -3.786000000    -0.146000000    -5.000000000
C    -4.331000000    -0.910000000    -3.985000000
H    -3.942000000    -0.694000000    -2.994000000
C    -4.172000000    -0.440000000    -6.299000000
H    -3.669000000     0.147000000    -7.063000000
C    -5.154000000    -1.434000000    -6.573000000
H    -5.454000000    -1.698000000    -7.583000000
C    -5.737000000    -2.200000000    -5.522000000
H    -6.496000000    -2.954000000    -5.711000000
C    -5.257000000    -1.963000000    -4.223000000
O    -5.843000000    -2.734000000    -3.230000000
C    -5.527000000    -2.738000000    -1.889000000
C    -6.398000000    -2.172000000    -0.910000000
H    -7.321000000    -1.701000000    -1.239000000
C    -6.074000000    -2.261000000     0.431000000
O    -6.971000000    -1.931000000     1.429000000
C    -6.569000000    -1.278000000     2.607000000
C    -5.790000000    -0.115000000     2.537000000
H    -5.637000000     0.378000000     1.580000000
C    -6.753000000    -1.891000000     3.830000000
H    -7.348000000    -2.792000000     3.958000000
C    -6.125000000    -1.361000000     4.912000000
H    -6.183000000    -1.837000000     5.887000000
C    -5.300000000    -0.274000000     4.877000000
H    -4.733000000     0.142000000     5.706000000
C    -5.195000000     0.415000000     3.706000000
O    -4.474000000     1.575000000     3.640000000
C    -3.171000000     1.677000000     4.058000000
C    -2.735000000     2.906000000     4.503000000
H    -3.437000000     3.735000000     4.480000000
C    -1.390000000     3.075000000     4.804000000
O    -0.943000000     4.351000000     5.036000000
C     0.313000000     4.807000000     4.935000000
C     1.134000000     4.932000000     6.070000000
H     0.703000000     4.608000000     7.014000000
C     2.502000000     5.372000000     5.926000000
H     3.215000000     5.425000000     6.746000000
C     2.906000000     5.821000000     4.669000000
H     3.903000000     6.241000000     4.561000000
C     2.049000000     5.660000000     3.562000000
C     0.802000000     5.199000000     3.701000000
H     0.179000000     5.099000000     2.816000000
C    -1.279000000    -0.321000000     0.525000000
H    -2.062000000    -0.720000000     1.164000000
C    -0.020000000    -0.812000000     0.814000000
H     0.090000000    -1.598000000     1.557000000
C     1.060000000    -0.383000000     0.104000000
H     2.029000000    -0.856000000     0.214000000
C     0.936000000     0.657000000    -0.868000000
H     1.799000000     1.007000000    -1.430000000
C    -0.348000000     1.233000000    -1.048000000
H    -0.450000000     2.005000000    -1.807000000
C    -1.460000000     0.711000000    -0.363000000
C    -2.814000000     1.354000000    -0.606000000
O    -2.833000000     2.404000000    -1.323000000
O    -3.854000000     0.739000000    -0.360000000
O    -8.677000000     0.560000000     0.221000000
H    -7.794000000     0.744000000    -0.097000000
H    -8.593000000     0.553000000     1.174000000
O    -5.491000000     7.951000000    -1.734000000
H    -5.912000000     7.114000000    -1.932000000
H    -4.748000000     7.993000000    -2.335000000
O    -3.584000000     7.830000000     0.687000000
H    -4.220000000     7.357000000     0.151000000
H    -3.357000000     8.600000000     0.167000000
O    -8.401000000     1.322000000    -3.234000000
H    -8.181000000     1.297000000    -4.165000000
H    -7.608000000     1.018000000    -2.793000000
O    -3.320000000     7.118000000    -2.985000000
H    -2.408000000     7.036000000    -2.706000000
H    -3.641000000     6.217000000    -3.020000000
O    -6.365000000     5.474000000     0.333000000
H    -5.811000000     4.723000000     0.547000000
H    -6.331000000     5.533000000    -0.622000000
O    -6.498000000     5.730000000    -2.723000000
H    -6.040000000     5.420000000    -3.505000000
H    -7.389000000     5.909000000    -3.022000000
O    -8.842000000     3.627000000     0.290000000
H    -9.296000000     3.702000000    -0.549000000
H    -8.051000000     4.154000000     0.182000000
O    -6.336000000     6.345000000     2.855000000
H    -6.341000000     6.008000000     1.959000000
H    -5.664000000     7.026000000     2.851000000
O    -0.994000000     7.068000000     0.866000000
H    -1.839000000     7.509000000     0.951000000
H    -1.209000000     6.135000000     0.862000000
O    -2.554000000     5.421000000    -6.000000000
H    -2.549000000     4.775000000    -5.294000000
H    -3.298000000     5.989000000    -5.800000000
O    -1.248000000     4.258000000     0.327000000
H    -0.843000000     3.658000000     0.953000000
H    -1.851000000     3.709000000    -0.175000000
O    -2.111000000     4.130000000    -3.184000000
H    -2.674000000     3.576000000    -2.643000000
H    -1.531000000     4.565000000    -2.559000000
O    -4.764000000     2.665000000    -2.914000000
H    -4.327000000     2.202000000    -3.630000000
H    -4.201000000     2.517000000    -2.155000000
O    -6.080000000     0.915000000    -1.469000000
H    -5.794000000     1.585000000    -2.090000000
H    -5.268000000     0.580000000    -1.087000000
O    -5.369000000     4.384000000    -4.829000000
H    -5.667000000     3.880000000    -5.587000000
H    -5.272000000     3.734000000    -4.133000000
O    -7.608000000     2.700000000     2.533000000
H    -8.314000000     3.091000000     2.018000000
H    -6.816000000     2.876000000     2.025000000
O    -0.725000000     7.091000000    -1.744000000
H     0.212000000     7.059000000    -1.935000000
H    -0.773000000     7.208000000    -0.796000000
O    -5.364000000     3.026000000     1.009000000
H    -5.306000000     2.594000000     0.156000000
H    -4.509000000     2.875000000     1.412000000
