215
-1458.91850
C    -3.344000000    -3.408000000     1.130000000
H    -2.394000000    -3.590000000     1.626000000
C    -3.358000000    -3.402000000    -0.258000000
C    -4.506000000    -2.925000000    -0.928000000
H    -4.391000000    -2.838000000    -2.005000000
C    -2.087000000    -3.651000000    -1.052000000
O    -1.401000000    -4.816000000    -0.478000000
H    -1.527000000    -2.731000000    -0.830000000
O    -2.253000000    -3.750000000    -2.509000000
C    -1.340000000    -3.012000000    -3.229000000
C    -1.820000000    -1.845000000    -3.845000000
H    -2.867000000    -1.555000000    -3.819000000
C    -0.912000000    -1.065000000    -4.553000000
O    -1.312000000     0.213000000    -4.985000000
C     0.451000000    -1.386000000    -4.647000000
C     1.426000000    -0.436000000    -5.376000000
H     2.162000000    -1.104000000    -5.829000000
C     2.047000000     0.540000000    -4.474000000
C     3.237000000     0.219000000    -3.928000000
H     3.655000000    -0.729000000    -4.259000000
H     0.987000000     0.200000000    -6.147000000
C     0.840000000    -2.576000000    -4.006000000
H     1.909000000    -2.771000000    -3.998000000
C    -0.036000000    -3.415000000    -3.386000000
C     0.478000000    -4.710000000    -2.739000000
H     1.364000000    -4.971000000    -3.322000000
H    -0.290000000    -5.484000000    -2.790000000
C     0.866000000    -4.541000000    -1.289000000
C     2.233000000    -4.236000000    -1.050000000
H     2.913000000    -4.029000000    -1.873000000
C    -0.052000000    -4.693000000    -0.276000000
C     0.420000000    -4.611000000     1.018000000
H    -0.295000000    -4.613000000     1.837000000
C     1.756000000    -4.266000000     1.302000000
O     2.075000000    -3.806000000     2.592000000
C     2.341000000    -2.407000000     2.813000000
C     1.696000000    -1.984000000     4.138000000
C     1.849000000    -0.635000000     4.474000000
H     2.563000000    -0.003000000     3.951000000
C     0.789000000    -2.670000000     4.879000000
H     0.516000000    -3.650000000     4.496000000
O     3.758000000    -2.189000000     2.833000000
H     1.939000000    -1.848000000     1.955000000
C     2.665000000    -4.106000000     0.239000000
C     4.148000000    -3.749000000     0.514000000
H     4.716000000    -4.145000000    -0.331000000
H     4.577000000    -4.244000000     1.388000000
C     4.357000000    -2.257000000     0.570000000
C     4.769000000    -1.586000000    -0.665000000
H     5.025000000    -2.158000000    -1.553000000
C     4.239000000    -1.516000000     1.685000000
C     4.350000000    -0.168000000     1.642000000
H     4.191000000     0.418000000     2.543000000
C     4.482000000     0.508000000     0.438000000
O     4.496000000     1.861000000     0.515000000
C     3.367000000     2.529000000    -0.070000000
C     3.062000000     3.788000000     0.750000000
C     3.673000000     3.918000000     2.047000000
H     4.517000000     3.300000000     2.343000000
C     1.916000000     4.537000000     0.371000000
H     1.298000000     4.321000000    -0.498000000
O     3.675000000     2.884000000    -1.413000000
H     2.404000000     1.998000000    -0.056000000
C     4.734000000    -0.193000000    -0.763000000
C     5.044000000     0.506000000    -2.098000000
H     5.614000000    -0.175000000    -2.733000000
H     5.667000000     1.383000000    -1.911000000
C     3.747000000     0.959000000    -2.841000000
C     3.131000000     2.128000000    -2.451000000
C     1.927000000     2.507000000    -3.038000000
H     1.451000000     3.442000000    -2.755000000
C     1.338000000     1.666000000    -4.028000000
O     0.115000000     2.014000000    -4.526000000
C    -1.043000000     1.280000000    -4.070000000
H    -0.666000000     0.752000000    -3.182000000
C    -2.231000000     2.204000000    -3.732000000
C    -3.502000000     1.701000000    -3.764000000
H    -3.751000000     0.692000000    -4.081000000
C    -2.059000000     3.545000000    -3.353000000
H    -1.052000000     3.947000000    -3.282000000
C    -3.089000000     4.369000000    -2.962000000
O    -2.846000000     5.715000000    -2.701000000
C    -4.396000000     3.806000000    -3.001000000
H    -5.229000000     4.488000000    -2.849000000
C    -4.577000000     2.480000000    -3.318000000
O    -5.898000000     2.126000000    -3.512000000
C    -6.310000000     0.777000000    -3.496000000
C    -5.935000000     0.031000000    -2.309000000
H    -5.344000000     0.529000000    -1.545000000
C    -7.337000000     0.352000000    -4.345000000
H    -7.657000000     0.965000000    -5.184000000
C    -7.972000000    -0.853000000    -4.061000000
H    -8.890000000    -1.147000000    -4.562000000
C    -7.588000000    -1.630000000    -2.892000000
H    -8.177000000    -2.489000000    -2.584000000
C    -6.577000000    -1.201000000    -2.028000000
O    -6.548000000    -1.669000000    -0.745000000
C    -5.525000000    -2.353000000    -0.145000000
C    -5.583000000    -2.422000000     1.222000000
H    -6.302000000    -1.856000000     1.809000000
C    -4.386000000    -2.905000000     1.836000000
O    -4.401000000    -2.756000000     3.179000000
C    -3.515000000    -3.524000000     4.001000000
C    -2.590000000    -2.830000000     4.728000000
H    -2.523000000    -1.764000000     4.529000000
C    -3.681000000    -4.931000000     4.177000000
H    -4.466000000    -5.516000000     3.705000000
C    -2.883000000    -5.532000000     5.096000000
H    -3.059000000    -6.577000000     5.339000000
C    -2.035000000    -4.752000000     5.935000000
H    -1.459000000    -5.165000000     6.759000000
C    -1.880000000    -3.412000000     5.766000000
O    -0.933000000    -2.763000000     6.491000000
C     0.081000000    -2.099000000     5.887000000
C     0.423000000    -0.851000000     6.344000000
H    -0.026000000    -0.466000000     7.257000000
C     1.347000000    -0.125000000     5.681000000
O     1.470000000     1.191000000     6.052000000
C     2.614000000     1.905000000     5.796000000
C     2.612000000     3.193000000     5.203000000
H     1.645000000     3.644000000     4.992000000
C     3.857000000     1.363000000     6.038000000
H     3.894000000     0.470000000     6.657000000
C     5.062000000     1.973000000     5.653000000
H     5.970000000     1.426000000     5.894000000
C     5.041000000     3.224000000     5.089000000
H     5.936000000     3.778000000     4.818000000
C     3.801000000     3.835000000     4.827000000
O     3.711000000     5.004000000     4.123000000
C     3.169000000     4.940000000     2.876000000
C     2.137000000     5.807000000     2.379000000
H     1.717000000     6.603000000     2.988000000
C     1.450000000     5.603000000     1.153000000
O     0.491000000     6.439000000     0.657000000
C     0.137000000     6.420000000    -0.694000000
C     1.077000000     6.808000000    -1.684000000
H     2.000000000     7.240000000    -1.307000000
C     0.597000000     6.935000000    -2.971000000
H     1.246000000     7.439000000    -3.682000000
C    -0.707000000     6.619000000    -3.330000000
H    -1.090000000     6.974000000    -4.283000000
C    -1.622000000     6.156000000    -2.392000000
C    -1.160000000     6.028000000    -1.081000000
H    -1.804000000     5.615000000    -0.308000000
C    -1.940000000    -0.403000000     1.664000000
H    -2.341000000    -1.067000000     2.425000000
C    -0.751000000    -0.871000000     1.063000000
H    -0.237000000    -1.733000000     1.481000000
C    -0.174000000    -0.124000000     0.078000000
H     0.763000000    -0.453000000    -0.352000000
C    -0.764000000     1.024000000    -0.375000000
H    -0.227000000     1.669000000    -1.065000000
C    -2.005000000     1.394000000     0.132000000
H    -2.389000000     2.354000000    -0.204000000
C    -2.662000000     0.622000000     1.157000000
C    -3.984000000     1.112000000     1.677000000
O    -4.271000000     2.241000000     1.467000000
O    -4.582000000     0.374000000     2.434000000
O    -6.636000000     0.285000000     4.092000000
H    -5.805000000     0.320000000     3.618000000
H    -6.555000000    -0.479000000     4.663000000
O    -3.421000000     4.740000000     6.514000000
H    -3.830000000     4.340000000     7.281000000
H    -3.854000000     4.327000000     5.767000000
O    -7.424000000     4.708000000     4.351000000
H    -7.114000000     3.984000000     4.896000000
H    -6.924000000     4.626000000     3.538000000
O    -0.439000000     5.282000000     5.353000000
H    -0.718000000     5.387000000     4.443000000
H    -1.254000000     5.155000000     5.840000000
O    -7.384000000     1.059000000     1.377000000
H    -7.556000000     1.066000000     2.319000000
H    -6.529000000     0.638000000     1.292000000
O    -4.461000000     3.680000000     4.108000000
H    -4.298000000     2.744000000     3.986000000
H    -4.552000000     4.024000000     3.219000000
O    -9.731000000    -1.380000000    -0.020000000
H    -9.040000000    -0.759000000     0.210000000
H    -9.424000000    -2.219000000     0.324000000
O    -3.457000000     0.723000000     5.026000000
H    -3.767000000     0.386000000     4.186000000
H    -4.058000000     0.351000000     5.671000000
O    -6.982000000     6.848000000     1.717000000
H    -6.616000000     6.037000000     1.365000000
H    -6.329000000     7.150000000     2.349000000
O    -6.513000000     2.654000000     5.789000000
H    -5.606000000     2.896000000     5.599000000
H    -6.645000000     1.831000000     5.318000000
O    -3.487000000     4.815000000     1.422000000
H    -3.921000000     3.979000000     1.250000000
H    -2.655000000     4.573000000     1.828000000
O    -1.347000000     4.313000000     2.804000000
H    -0.540000000     4.073000000     2.349000000
H    -1.519000000     3.577000000     3.392000000
O    -0.975000000     2.151000000     4.447000000
H    -1.483000000     1.376000000     4.688000000
H    -0.462000000     2.354000000     5.229000000
O    -3.257000000     7.002000000     3.140000000
H    -3.199000000     6.105000000     2.813000000
H    -2.358000000     7.329000000     3.103000000
O    -9.118000000     1.360000000    -0.631000000
H    -8.459000000     1.342000000     0.064000000
H    -9.445000000     0.462000000    -0.674000000
O    -2.398000000     1.174000000     7.857000000
H    -2.486000000     2.126000000     7.821000000
H    -2.877000000     0.860000000     7.090000000
O    -5.062000000    -0.426000000     6.873000000
H    -5.752000000    -0.004000000     7.387000000
H    -5.009000000    -1.313000000     7.227000000
O    -9.170000000     4.114000000    -0.036000000
H    -9.212000000     3.269000000    -0.483000000
H    -9.701000000     3.995000000     0.752000000
O    -6.264000000     3.874000000     1.813000000
H    -6.987000000     3.438000000     1.363000000
H    -5.554000000     3.232000000     1.804000000
