215
-1446.62268
C    -2.779000000    -3.928000000     1.696000000
H    -1.859000000    -4.413000000     2.012000000
C    -2.897000000    -3.488000000     0.342000000
C    -4.063000000    -2.776000000    -0.003000000
H    -4.051000000    -2.461000000    -1.043000000
C    -1.713000000    -3.721000000    -0.634000000
O    -0.884000000    -4.800000000    -0.248000000
H    -1.104000000    -2.805000000    -0.646000000
O    -2.168000000    -3.914000000    -1.964000000
C    -1.578000000    -3.128000000    -2.876000000
C    -2.160000000    -1.927000000    -3.278000000
H    -3.094000000    -1.532000000    -2.887000000
C    -1.543000000    -1.192000000    -4.251000000
O    -2.108000000     0.040000000    -4.450000000
C    -0.307000000    -1.387000000    -4.694000000
C     0.403000000    -0.335000000    -5.598000000
H     1.080000000    -0.953000000    -6.191000000
C     1.136000000     0.693000000    -4.735000000
C     2.370000000     0.361000000    -4.252000000
H     2.942000000    -0.480000000    -4.634000000
H    -0.319000000     0.141000000    -6.264000000
C     0.318000000    -2.566000000    -4.290000000
H     1.332000000    -2.798000000    -4.605000000
C    -0.327000000    -3.422000000    -3.391000000
C     0.460000000    -4.600000000    -2.901000000
H     1.243000000    -4.939000000    -3.584000000
H    -0.292000000    -5.368000000    -2.708000000
C     1.166000000    -4.404000000    -1.508000000
C     2.516000000    -4.103000000    -1.498000000
H     3.055000000    -4.018000000    -2.438000000
C     0.475000000    -4.538000000    -0.256000000
C     1.107000000    -4.286000000     0.938000000
H     0.582000000    -4.427000000     1.879000000
C     2.484000000    -3.887000000     0.917000000
O     3.042000000    -3.462000000     2.154000000
C     3.220000000    -2.103000000     2.386000000
C     2.612000000    -1.759000000     3.751000000
C     3.138000000    -0.604000000     4.338000000
H     3.927000000     0.002000000     3.898000000
C     1.521000000    -2.455000000     4.344000000
H     1.172000000    -3.380000000     3.892000000
O     4.441000000    -1.572000000     2.031000000
H     2.436000000    -1.649000000     1.763000000
C     3.144000000    -3.825000000    -0.304000000
C     4.517000000    -3.275000000    -0.320000000
H     5.147000000    -3.619000000    -1.143000000
H     5.065000000    -3.616000000     0.560000000
C     4.546000000    -1.767000000    -0.352000000
C     4.504000000    -1.144000000    -1.609000000
H     4.515000000    -1.814000000    -2.466000000
C     4.517000000    -0.977000000     0.830000000
C     4.614000000     0.438000000     0.744000000
H     4.710000000     1.052000000     1.635000000
C     4.685000000     1.063000000    -0.515000000
O     4.395000000     2.433000000    -0.561000000
C     3.047000000     2.875000000    -0.895000000
C     2.490000000     3.955000000     0.048000000
C     2.704000000     3.897000000     1.464000000
H     3.315000000     3.058000000     1.787000000
C     1.676000000     4.914000000    -0.455000000
H     1.618000000     5.176000000    -1.508000000
O     3.025000000     3.379000000    -2.225000000
H     2.390000000     1.994000000    -0.849000000
C     4.520000000     0.269000000    -1.653000000
C     4.520000000     0.961000000    -3.057000000
H     5.019000000     0.314000000    -3.781000000
H     5.121000000     1.869000000    -2.976000000
C     3.078000000     1.278000000    -3.496000000
C     2.550000000     2.579000000    -3.145000000
C     1.234000000     2.888000000    -3.565000000
H     0.827000000     3.853000000    -3.275000000
C     0.522000000     1.900000000    -4.316000000
O    -0.879000000     2.011000000    -4.484000000
C    -1.772000000     1.208000000    -3.673000000
H    -1.126000000     1.031000000    -2.801000000
C    -3.010000000     1.935000000    -3.092000000
C    -4.288000000     1.410000000    -3.303000000
H    -4.466000000     0.475000000    -3.829000000
C    -2.861000000     3.127000000    -2.325000000
H    -1.903000000     3.567000000    -2.060000000
C    -3.950000000     3.747000000    -1.780000000
O    -3.755000000     4.889000000    -1.054000000
C    -5.219000000     3.200000000    -1.895000000
H    -6.152000000     3.563000000    -1.472000000
C    -5.363000000     2.029000000    -2.653000000
O    -6.563000000     1.473000000    -2.706000000
C    -6.735000000     0.209000000    -2.326000000
C    -6.440000000    -0.218000000    -1.049000000
H    -6.206000000     0.576000000    -0.345000000
C    -7.163000000    -0.772000000    -3.246000000
H    -7.288000000    -0.448000000    -4.276000000
C    -7.180000000    -2.160000000    -2.896000000
H    -7.414000000    -2.972000000    -3.579000000
C    -6.942000000    -2.548000000    -1.613000000
H    -7.022000000    -3.557000000    -1.216000000
C    -6.542000000    -1.599000000    -0.721000000
O    -6.264000000    -1.931000000     0.569000000
C    -5.098000000    -2.610000000     0.889000000
C    -5.028000000    -3.098000000     2.205000000
H    -5.849000000    -3.037000000     2.915000000
C    -3.798000000    -3.691000000     2.602000000
O    -3.720000000    -4.110000000     3.929000000
C    -2.613000000    -4.485000000     4.608000000
C    -1.818000000    -3.409000000     5.140000000
H    -2.146000000    -2.386000000     4.978000000
C    -2.107000000    -5.737000000     4.770000000
H    -2.652000000    -6.551000000     4.297000000
C    -0.842000000    -5.981000000     5.354000000
H    -0.452000000    -6.979000000     5.539000000
C    -0.149000000    -4.942000000     5.963000000
H     0.859000000    -5.148000000     6.314000000
C    -0.610000000    -3.664000000     5.797000000
O     0.101000000    -2.631000000     6.349000000
C     1.006000000    -1.933000000     5.531000000
C     1.618000000    -0.866000000     6.187000000
H     1.395000000    -0.676000000     7.233000000
C     2.647000000    -0.195000000     5.573000000
O     3.327000000     0.828000000     6.152000000
C     3.767000000     2.051000000     5.611000000
C     2.856000000     2.876000000     4.965000000
H     1.823000000     2.566000000     4.836000000
C     5.161000000     2.349000000     5.661000000
H     5.851000000     1.628000000     6.091000000
C     5.671000000     3.405000000     4.933000000
H     6.737000000     3.611000000     4.866000000
C     4.734000000     4.244000000     4.293000000
H     5.056000000     4.984000000     3.564000000
C     3.353000000     4.031000000     4.383000000
O     2.511000000     4.897000000     3.708000000
C     2.197000000     4.840000000     2.364000000
C     1.293000000     5.841000000     1.871000000
H     0.805000000     6.548000000     2.537000000
C     1.045000000     5.842000000     0.437000000
O     0.347000000     6.938000000    -0.091000000
C    -0.714000000     6.896000000    -0.929000000
C    -0.767000000     7.679000000    -2.090000000
H     0.106000000     8.262000000    -2.370000000
C    -1.854000000     7.465000000    -2.936000000
H    -1.916000000     8.017000000    -3.871000000
C    -2.830000000     6.553000000    -2.588000000
H    -3.653000000     6.284000000    -3.245000000
C    -2.763000000     5.810000000    -1.418000000
C    -1.761000000     6.088000000    -0.537000000
H    -1.641000000     5.518000000     0.380000000
C    -1.126000000    -0.575000000     1.788000000
H    -0.968000000    -1.334000000     2.549000000
C    -0.208000000    -0.603000000     0.711000000
H     0.553000000    -1.363000000     0.551000000
C    -0.166000000     0.514000000    -0.092000000
H     0.655000000     0.485000000    -0.868000000
C    -1.025000000     1.600000000     0.102000000
H    -0.931000000     2.470000000    -0.543000000
C    -2.052000000     1.543000000     1.099000000
H    -2.769000000     2.335000000     1.296000000
C    -2.068000000     0.466000000     1.949000000
C    -2.986000000     0.477000000     3.189000000
O    -3.832000000     1.322000000     3.270000000
O    -2.609000000    -0.077000000     4.237000000
O    -5.046000000    -1.064000000     4.989000000
H    -4.968000000    -2.003000000     5.160000000
H    -4.173000000    -0.801000000     4.697000000
O     0.413000000     2.109000000     8.037000000
H     0.011000000     1.400000000     8.540000000
H     0.269000000     1.865000000     7.123000000
O    -5.642000000     4.464000000     4.786000000
H    -5.376000000     4.883000000     5.605000000
H    -5.828000000     5.193000000     4.193000000
O    -5.715000000    -0.048000000     8.372000000
H    -5.640000000     0.906000000     8.380000000
H    -6.289000000    -0.237000000     7.630000000
O    -5.323000000     2.722000000     7.551000000
H    -5.984000000     3.409000000     7.635000000
H    -4.838000000     2.952000000     6.758000000
O    -3.855000000    -3.530000000     8.366000000
H    -3.468000000    -3.584000000     9.240000000
H    -3.826000000    -2.598000000     8.149000000
O    -6.574000000    -0.163000000     3.081000000
H    -6.374000000    -0.452000000     3.971000000
H    -5.873000000     0.452000000     2.865000000
O    -1.088000000    -0.476000000     9.134000000
H    -1.455000000    -0.034000000     9.900000000
H    -1.808000000    -0.498000000     8.503000000
O    -3.329000000     4.088000000     3.241000000
H    -3.712000000     4.299000000     4.093000000
H    -3.336000000     3.132000000     3.205000000
O    -8.045000000     2.717000000     5.462000000
H    -7.125000000     2.953000000     5.343000000
H    -8.316000000     2.372000000     4.611000000
O    -3.573000000     7.052000000     3.033000000
H    -2.686000000     7.411000000     3.006000000
H    -3.449000000     6.104000000     2.975000000
O    -0.596000000     1.156000000     5.431000000
H    -1.168000000     0.565000000     4.940000000
H    -0.036000000     1.555000000     4.765000000
O    -3.148000000     2.425000000     5.840000000
H    -3.534000000     1.859000000     5.171000000
H    -2.289000000     2.040000000     6.014000000
O    -6.032000000     5.092000000     0.698000000
H    -6.291000000     4.310000000     1.184000000
H    -5.205000000     4.852000000     0.280000000
O    -2.593000000     5.225000000     6.000000000
H    -1.648000000     5.304000000     6.134000000
H    -2.755000000     4.282000000     5.990000000
O     0.115000000     2.152000000     3.183000000
H    -0.134000000     1.662000000     2.399000000
H    -0.575000000     2.808000000     3.284000000
O    -8.643000000    -1.968000000     2.513000000
H    -7.970000000    -1.296000000     2.613000000
H    -8.329000000    -2.517000000     1.794000000
O    -3.090000000    -0.627000000     7.604000000
H    -3.012000000    -0.826000000     6.671000000
H    -3.977000000    -0.281000000     7.702000000
O    -6.178000000     2.749000000     1.953000000
H    -6.639000000     1.916000000     2.050000000
H    -5.451000000     2.694000000     2.574000000
