215
-1457.14574
C    -1.298000000    -4.894000000     0.575000000
H    -0.363000000    -5.319000000     0.933000000
C    -1.244000000    -4.107000000    -0.550000000
C    -2.431000000    -3.560000000    -1.013000000
H    -2.426000000    -2.879000000    -1.860000000
C     0.098000000    -3.783000000    -1.253000000
O     1.110000000    -4.650000000    -0.861000000
H     0.394000000    -2.756000000    -0.992000000
O    -0.024000000    -3.833000000    -2.709000000
C     0.411000000    -2.743000000    -3.382000000
C    -0.467000000    -1.734000000    -3.749000000
H    -1.543000000    -1.838000000    -3.629000000
C     0.087000000    -0.660000000    -4.386000000
O    -0.819000000     0.285000000    -4.909000000
C     1.426000000    -0.497000000    -4.645000000
C     1.915000000     0.864000000    -5.226000000
H     2.885000000     0.789000000    -5.720000000
C     1.971000000     1.887000000    -4.104000000
C     3.113000000     2.061000000    -3.399000000
H     3.993000000     1.448000000    -3.572000000
H     1.315000000     1.197000000    -6.075000000
C     2.360000000    -1.440000000    -4.215000000
H     3.395000000    -1.126000000    -4.324000000
C     1.815000000    -2.584000000    -3.599000000
C     2.894000000    -3.560000000    -3.057000000
H     3.754000000    -3.514000000    -3.728000000
H     2.457000000    -4.557000000    -3.140000000
C     3.181000000    -3.400000000    -1.571000000
C     4.220000000    -2.524000000    -1.203000000
H     4.679000000    -1.922000000    -1.983000000
C     2.361000000    -4.070000000    -0.634000000
C     2.634000000    -3.737000000     0.711000000
H     1.985000000    -4.105000000     1.501000000
C     3.701000000    -2.956000000     1.098000000
O     3.769000000    -2.672000000     2.421000000
C     3.035000000    -1.468000000     2.828000000
C     2.174000000    -1.654000000     4.169000000
C     1.547000000    -0.580000000     4.711000000
H     1.746000000     0.414000000     4.319000000
C     1.865000000    -2.910000000     4.679000000
H     2.344000000    -3.727000000     4.145000000
O     3.979000000    -0.336000000     2.984000000
H     2.252000000    -1.258000000     2.084000000
C     4.440000000    -2.222000000     0.179000000
C     5.444000000    -1.175000000     0.590000000
H     6.285000000    -1.168000000    -0.106000000
H     5.888000000    -1.474000000     1.542000000
C     4.852000000     0.130000000     0.779000000
C     4.913000000     0.956000000    -0.291000000
H     5.424000000     0.613000000    -1.187000000
C     4.167000000     0.518000000     1.916000000
C     3.649000000     1.794000000     2.017000000
H     3.257000000     2.230000000     2.933000000
C     3.683000000     2.668000000     0.918000000
O     2.964000000     3.866000000     0.900000000
C     1.676000000     3.925000000     0.314000000
C     0.534000000     4.564000000     1.095000000
C     0.701000000     4.567000000     2.483000000
H     1.584000000     4.151000000     2.961000000
C    -0.684000000     4.959000000     0.515000000
H    -0.823000000     4.874000000    -0.559000000
O     1.945000000     4.600000000    -0.983000000
H     1.277000000     2.945000000     0.015000000
C     4.342000000     2.254000000    -0.269000000
C     4.432000000     3.143000000    -1.497000000
H     5.258000000     2.741000000    -2.088000000
H     4.646000000     4.171000000    -1.196000000
C     3.099000000     2.987000000    -2.278000000
C     1.982000000     3.789000000    -2.094000000
C     0.847000000     3.648000000    -2.896000000
H    -0.015000000     4.286000000    -2.721000000
C     0.831000000     2.571000000    -3.760000000
O    -0.393000000     2.527000000    -4.450000000
C    -1.209000000     1.397000000    -4.081000000
H    -0.840000000     1.141000000    -3.077000000
C    -2.688000000     1.642000000    -4.075000000
C    -3.523000000     0.566000000    -4.230000000
H    -3.066000000    -0.354000000    -4.584000000
C    -3.154000000     2.889000000    -3.739000000
H    -2.540000000     3.758000000    -3.517000000
C    -4.513000000     3.081000000    -3.524000000
O    -5.018000000     4.313000000    -3.113000000
C    -5.417000000     1.976000000    -3.686000000
H    -6.495000000     2.106000000    -3.734000000
C    -4.922000000     0.727000000    -4.125000000
O    -5.835000000    -0.245000000    -4.368000000
C    -5.594000000    -1.527000000    -3.996000000
C    -5.232000000    -1.805000000    -2.634000000
H    -5.274000000    -1.037000000    -1.865000000
C    -5.604000000    -2.557000000    -4.918000000
H    -5.737000000    -2.238000000    -5.949000000
C    -5.247000000    -3.819000000    -4.463000000
H    -5.127000000    -4.665000000    -5.135000000
C    -4.934000000    -4.122000000    -3.105000000
H    -4.760000000    -5.149000000    -2.795000000
C    -4.969000000    -3.061000000    -2.201000000
O    -4.799000000    -3.208000000    -0.875000000
C    -3.619000000    -3.781000000    -0.399000000
C    -3.672000000    -4.499000000     0.826000000
H    -4.586000000    -4.678000000     1.387000000
C    -2.469000000    -4.984000000     1.283000000
O    -2.530000000    -5.766000000     2.406000000
C    -1.457000000    -6.058000000     3.201000000
C    -0.915000000    -5.025000000     4.041000000
H    -1.396000000    -4.070000000     3.848000000
C    -1.159000000    -7.366000000     3.504000000
H    -1.544000000    -8.204000000     2.929000000
C    -0.302000000    -7.618000000     4.582000000
H    -0.041000000    -8.648000000     4.816000000
C     0.239000000    -6.602000000     5.347000000
H     0.881000000    -6.817000000     6.198000000
C     0.020000000    -5.242000000     5.011000000
O     0.308000000    -4.304000000     5.967000000
C     0.854000000    -3.047000000     5.643000000
C     0.477000000    -1.928000000     6.304000000
H    -0.205000000    -2.009000000     7.146000000
C     0.738000000    -0.682000000     5.843000000
O     0.251000000     0.442000000     6.478000000
C     0.798000000     1.709000000     6.264000000
C     0.102000000     2.617000000     5.492000000
H    -0.798000000     2.399000000     4.922000000
C     1.913000000     2.034000000     7.024000000
H     2.415000000     1.225000000     7.548000000
C     2.435000000     3.404000000     6.872000000
H     3.420000000     3.623000000     7.277000000
C     1.795000000     4.302000000     6.001000000
H     2.221000000     5.290000000     5.848000000
C     0.569000000     3.970000000     5.345000000
O    -0.223000000     4.851000000     4.706000000
C    -0.326000000     4.960000000     3.313000000
C    -1.531000000     5.320000000     2.784000000
H    -2.373000000     5.398000000     3.468000000
C    -1.701000000     5.397000000     1.397000000
O    -2.946000000     5.666000000     0.935000000
C    -3.226000000     5.888000000    -0.407000000
C    -2.854000000     7.175000000    -1.003000000
H    -2.559000000     8.004000000    -0.365000000
C    -3.233000000     7.378000000    -2.347000000
H    -3.150000000     8.364000000    -2.798000000
C    -3.855000000     6.358000000    -3.041000000
H    -4.144000000     6.598000000    -4.061000000
C    -4.268000000     5.225000000    -2.431000000
C    -3.945000000     4.937000000    -1.107000000
H    -4.371000000     4.018000000    -0.712000000
C    -1.623000000    -1.016000000     1.029000000
H    -1.804000000    -2.009000000     1.435000000
C    -0.327000000    -0.673000000     0.647000000
H     0.534000000    -1.307000000     0.845000000
C    -0.085000000     0.537000000     0.024000000
H     0.988000000     0.784000000    -0.313000000
C    -1.160000000     1.369000000    -0.281000000
H    -0.970000000     2.342000000    -0.726000000
C    -2.425000000     1.007000000     0.007000000
H    -3.244000000     1.699000000    -0.170000000
C    -2.681000000    -0.140000000     0.754000000
C    -4.108000000    -0.482000000     1.224000000
O    -5.091000000    -0.035000000     0.635000000
O    -4.318000000    -1.322000000     2.054000000
O    -6.709000000    -2.589000000     1.389000000
H    -5.948000000    -2.009000000     1.425000000
H    -6.633000000    -3.031000000     0.543000000
O    -6.891000000     2.480000000     5.838000000
H    -6.177000000     2.077000000     5.344000000
H    -7.446000000     1.745000000     6.099000000
O    -3.698000000    -2.861000000     3.981000000
H    -4.038000000    -2.373000000     3.231000000
H    -4.352000000    -3.541000000     4.141000000
O    -5.560000000     0.211000000     4.294000000
H    -4.671000000     0.018000000     3.995000000
H    -6.106000000    -0.443000000     3.858000000
O    -5.816000000    -4.603000000     4.101000000
H    -5.712000000    -5.535000000     4.290000000
H    -6.398000000    -4.576000000     3.342000000
O    -3.545000000    -3.415000000     6.823000000
H    -3.110000000    -4.263000000     6.732000000
H    -3.663000000    -3.108000000     5.924000000
O    -9.764000000    -3.382000000     1.353000000
H   -10.103000000    -2.538000000     1.053000000
H    -9.011000000    -3.553000000     0.786000000
O   -10.495000000    -0.541000000    -0.446000000
H    -9.566000000    -0.579000000    -0.674000000
H   -10.949000000    -0.792000000    -1.250000000
O    -7.317000000     0.918000000     1.965000000
H    -7.145000000     1.778000000     1.581000000
H    -6.531000000     0.408000000     1.772000000
O    -3.728000000     3.498000000     5.608000000
H    -3.853000000     2.782000000     6.230000000
H    -3.606000000     3.064000000     4.764000000
O    -8.185000000    -3.966000000    -0.908000000
H    -7.249000000    -4.062000000    -1.084000000
H    -8.599000000    -4.645000000    -1.440000000
O    -8.058000000     4.550000000     0.462000000
H    -7.758000000     4.900000000    -0.377000000
H    -7.254000000     4.319000000     0.927000000
O    -2.055000000    -0.439000000     4.361000000
H    -2.622000000    -1.057000000     3.898000000
H    -1.563000000    -0.981000000     4.977000000
O    -6.193000000     1.837000000    -0.901000000
H    -6.967000000     1.512000000    -1.360000000
H    -5.837000000     1.067000000    -0.457000000
O    -9.126000000     1.926000000     3.481000000
H    -9.862000000     1.353000000     3.267000000
H    -8.382000000     1.547000000     3.011000000
O    -2.865000000     2.314000000     3.266000000
H    -2.040000000     2.673000000     2.940000000
H    -2.667000000     1.400000000     3.468000000
O    -5.642000000     3.502000000     1.396000000
H    -4.928000000     3.059000000     1.855000000
H    -5.505000000     3.285000000     0.474000000
O    -8.592000000     1.061000000    -2.853000000
H    -8.322000000     0.239000000    -2.443000000
H    -9.054000000     1.534000000    -2.161000000
O    -7.783000000    -1.078000000    -0.911000000
H    -7.770000000    -2.014000000    -1.110000000
H    -7.416000000    -1.015000000    -0.029000000
