215
-1440.57637
C    -1.059000000    -4.931000000     0.303000000
H    -0.038000000    -5.227000000     0.530000000
C    -1.265000000    -4.052000000    -0.798000000
C    -2.523000000    -3.630000000    -1.108000000
H    -2.744000000    -2.985000000    -1.955000000
C    -0.046000000    -3.515000000    -1.575000000
O     1.107000000    -4.336000000    -1.339000000
H     0.189000000    -2.542000000    -1.118000000
O    -0.316000000    -3.577000000    -2.956000000
C     0.046000000    -2.579000000    -3.788000000
C    -0.970000000    -1.644000000    -4.060000000
H    -1.980000000    -1.670000000    -3.661000000
C    -0.583000000    -0.465000000    -4.724000000
O    -1.553000000     0.485000000    -4.988000000
C     0.770000000    -0.175000000    -4.926000000
C     1.280000000     1.144000000    -5.355000000
H     2.207000000     1.070000000    -5.927000000
C     1.351000000     2.220000000    -4.274000000
C     2.586000000     2.445000000    -3.683000000
H     3.538000000     2.037000000    -4.013000000
H     0.470000000     1.530000000    -5.977000000
C     1.764000000    -1.121000000    -4.631000000
H     2.799000000    -1.034000000    -4.953000000
C     1.367000000    -2.334000000    -4.016000000
C     2.505000000    -3.274000000    -3.575000000
H     3.345000000    -2.975000000    -4.204000000
H     2.308000000    -4.331000000    -3.767000000
C     3.068000000    -3.132000000    -2.146000000
C     4.122000000    -2.233000000    -1.829000000
H     4.539000000    -1.620000000    -2.623000000
C     2.376000000    -3.724000000    -1.119000000
C     2.803000000    -3.672000000     0.206000000
H     2.173000000    -4.036000000     1.014000000
C     3.798000000    -2.706000000     0.445000000
O     3.946000000    -2.454000000     1.760000000
C     3.350000000    -1.292000000     2.372000000
C     2.738000000    -1.568000000     3.687000000
C     2.724000000    -0.589000000     4.737000000
H     3.240000000     0.362000000     4.633000000
C     2.111000000    -2.770000000     3.894000000
H     1.954000000    -3.498000000     3.103000000
O     4.342000000    -0.221000000     2.466000000
H     2.531000000    -1.017000000     1.692000000
C     4.542000000    -2.058000000    -0.502000000
C     5.620000000    -1.070000000    -0.058000000
H     6.439000000    -1.035000000    -0.779000000
H     6.153000000    -1.487000000     0.799000000
C     4.980000000     0.328000000     0.164000000
C     4.880000000     1.258000000    -0.849000000
H     5.115000000     1.077000000    -1.895000000
C     4.431000000     0.690000000     1.426000000
C     3.754000000     1.909000000     1.614000000
H     3.251000000     2.132000000     2.552000000
C     3.588000000     2.772000000     0.555000000
O     2.916000000     3.897000000     0.762000000
C     1.553000000     3.856000000     0.333000000
C     0.502000000     4.275000000     1.452000000
C     0.429000000     3.529000000     2.666000000
H     1.115000000     2.705000000     2.844000000
C    -0.510000000     5.115000000     1.148000000
H    -0.559000000     5.614000000     0.184000000
O     1.523000000     4.639000000    -0.929000000
H     1.356000000     2.777000000     0.247000000
C     4.202000000     2.462000000    -0.629000000
C     4.055000000     3.358000000    -1.795000000
H     4.908000000     3.178000000    -2.453000000
H     4.203000000     4.401000000    -1.506000000
C     2.720000000     3.306000000    -2.605000000
C     1.545000000     3.949000000    -2.068000000
C     0.329000000     3.777000000    -2.730000000
H    -0.589000000     4.214000000    -2.346000000
C     0.202000000     2.974000000    -3.864000000
O    -1.079000000     2.701000000    -4.254000000
C    -1.779000000     1.474000000    -3.915000000
H    -1.284000000     1.065000000    -3.022000000
C    -3.237000000     1.592000000    -3.413000000
C    -4.129000000     0.567000000    -3.670000000
H    -3.832000000    -0.248000000    -4.325000000
C    -3.519000000     2.679000000    -2.552000000
H    -2.833000000     3.478000000    -2.283000000
C    -4.818000000     2.713000000    -2.033000000
O    -5.173000000     3.718000000    -1.240000000
C    -5.725000000     1.690000000    -2.266000000
H    -6.708000000     1.735000000    -1.804000000
C    -5.429000000     0.663000000    -3.121000000
O    -6.365000000    -0.197000000    -3.465000000
C    -6.086000000    -1.498000000    -3.341000000
C    -5.522000000    -1.966000000    -2.163000000
H    -5.336000000    -1.253000000    -1.364000000
C    -6.462000000    -2.382000000    -4.327000000
H    -6.952000000    -2.044000000    -5.236000000
C    -6.185000000    -3.761000000    -4.101000000
H    -6.448000000    -4.419000000    -4.926000000
C    -5.596000000    -4.286000000    -2.889000000
H    -5.437000000    -5.338000000    -2.664000000
C    -5.300000000    -3.322000000    -1.942000000
O    -4.835000000    -3.692000000    -0.638000000
C    -3.611000000    -4.191000000    -0.389000000
C    -3.413000000    -4.979000000     0.695000000
H    -4.232000000    -5.181000000     1.381000000
C    -2.106000000    -5.299000000     1.081000000
O    -1.970000000    -6.007000000     2.196000000
C    -0.746000000    -6.116000000     2.834000000
C    -0.421000000    -5.140000000     3.762000000
H    -1.048000000    -4.258000000     3.861000000
C     0.112000000    -7.213000000     2.664000000
H    -0.231000000    -7.988000000     1.984000000
C     1.271000000    -7.376000000     3.485000000
H     1.976000000    -8.153000000     3.202000000
C     1.572000000    -6.338000000     4.391000000
H     2.497000000    -6.403000000     4.959000000
C     0.735000000    -5.267000000     4.529000000
O     0.984000000    -4.241000000     5.457000000
C     1.612000000    -3.074000000     5.200000000
C     1.575000000    -2.052000000     6.169000000
H     1.020000000    -2.257000000     7.080000000
C     2.191000000    -0.866000000     5.958000000
O     2.244000000     0.025000000     6.925000000
C     1.978000000     1.361000000     6.815000000
C     0.753000000     1.802000000     6.253000000
H    -0.068000000     1.108000000     6.090000000
C     3.077000000     2.265000000     6.915000000
H     3.995000000     1.890000000     7.361000000
C     2.980000000     3.466000000     6.242000000
H     3.876000000     4.080000000     6.215000000
C     1.791000000     3.852000000     5.599000000
H     1.812000000     4.814000000     5.093000000
C     0.626000000     3.075000000     5.626000000
O    -0.513000000     3.384000000     4.938000000
C    -0.544000000     3.845000000     3.638000000
C    -1.486000000     4.844000000     3.289000000
H    -2.152000000     5.183000000     4.079000000
C    -1.567000000     5.438000000     2.018000000
O    -2.499000000     6.414000000     1.709000000
C    -3.248000000     6.316000000     0.583000000
C    -3.373000000     7.368000000    -0.314000000
H    -2.832000000     8.301000000    -0.171000000
C    -3.990000000     7.167000000    -1.535000000
H    -4.033000000     7.974000000    -2.261000000
C    -4.573000000     5.955000000    -1.810000000
H    -5.090000000     5.698000000    -2.731000000
C    -4.475000000     4.886000000    -0.895000000
C    -3.771000000     5.040000000     0.296000000
H    -3.617000000     4.212000000     0.983000000
C    -1.686000000    -1.239000000     1.491000000
H    -1.924000000    -2.149000000     2.037000000
C    -0.357000000    -0.957000000     1.199000000
H     0.441000000    -1.628000000     1.506000000
C    -0.053000000     0.188000000     0.476000000
H     1.004000000     0.447000000     0.177000000
C    -1.117000000     1.022000000     0.078000000
H    -0.817000000     1.960000000    -0.382000000
C    -2.409000000     0.742000000     0.421000000
H    -3.177000000     1.463000000     0.153000000
C    -2.704000000    -0.368000000     1.179000000
C    -4.131000000    -0.576000000     1.694000000
O    -5.070000000     0.133000000     1.349000000
O    -4.338000000    -1.406000000     2.574000000
O    -7.454000000    -1.198000000     0.525000000
H    -7.222000000    -1.998000000     0.997000000
H    -6.678000000    -0.642000000     0.602000000
O    -8.383000000     2.402000000    -0.034000000
H    -8.132000000     1.502000000    -0.244000000
H    -9.303000000     2.341000000     0.223000000
O    -9.362000000    -0.739000000     3.358000000
H    -9.078000000    -1.589000000     3.695000000
H    -8.560000000    -0.333000000     3.027000000
O    -6.885000000     0.611000000     3.384000000
H    -6.489000000     0.396000000     2.540000000
H    -6.236000000     1.162000000     3.820000000
O    -6.081000000    -5.447000000     4.215000000
H    -5.875000000    -5.217000000     5.121000000
H    -6.159000000    -6.401000000     4.222000000
O    -3.475000000    -6.027000000     5.532000000
H    -2.794000000    -5.584000000     6.037000000
H    -3.640000000    -5.445000000     4.790000000
O    -5.463000000    -1.174000000     5.375000000
H    -5.963000000    -0.360000000     5.433000000
H    -5.451000000    -1.382000000     4.441000000
O    -9.117000000    -3.696000000     3.981000000
H    -8.871000000    -4.416000000     4.562000000
H    -9.407000000    -4.126000000     3.176000000
O    -5.103000000     4.709000000     3.947000000
H    -5.100000000     4.545000000     4.890000000
H    -4.886000000     3.863000000     3.556000000
O    -6.367000000    -3.121000000     2.484000000
H    -5.596000000    -2.554000000     2.504000000
H    -6.148000000    -3.843000000     3.074000000
O    -7.182000000     5.073000000     1.688000000
H    -7.003000000     4.140000000     1.566000000
H    -6.550000000     5.354000000     2.350000000
O    -3.765000000    -3.257000000     4.336000000
H    -3.733000000    -2.580000000     3.661000000
H    -4.356000000    -2.906000000     5.001000000
O    -4.623000000     2.332000000     3.125000000
H    -4.685000000     1.789000000     2.339000000
H    -3.812000000     2.049000000     3.548000000
O    -2.935000000     0.413000000     5.750000000
H    -3.768000000     0.083000000     5.411000000
H    -2.532000000    -0.346000000     6.172000000
O    -9.845000000    -1.106000000    -0.713000000
H    -9.641000000    -1.578000000    -1.521000000
H    -9.004000000    -1.025000000    -0.264000000
O    -2.557000000     2.509000000     7.280000000
H    -2.605000000     1.780000000     6.661000000
H    -2.731000000     3.286000000     6.750000000
O    -1.186000000    -3.833000000     7.002000000
H    -0.427000000    -3.717000000     6.429000000
H    -1.666000000    -3.008000000     6.934000000
O    -5.999000000    -3.870000000     6.743000000
H    -5.948000000    -2.931000000     6.563000000
H    -5.507000000    -3.985000000     7.555000000
O    -7.196000000    -5.397000000     1.488000000
H    -6.825000000    -5.401000000     2.370000000
H    -7.089000000    -4.495000000     1.186000000
