215
-1471.94836
C    -0.615000000    -0.226000000    -4.729000000
H    -1.196000000    -1.065000000    -4.355000000
C     0.811000000    -0.228000000    -4.672000000
C     1.501000000     0.829000000    -5.137000000
H     2.580000000     0.886000000    -5.017000000
C     1.473000000    -1.357000000    -3.904000000
O     0.889000000    -2.636000000    -4.123000000
H     1.283000000    -1.104000000    -2.851000000
O     2.933000000    -1.402000000    -3.999000000
C     3.610000000    -1.395000000    -2.842000000
C     4.167000000    -0.156000000    -2.332000000
H     4.001000000     0.753000000    -2.905000000
C     4.728000000    -0.182000000    -1.107000000
O     5.060000000     1.067000000    -0.550000000
C     4.864000000    -1.379000000    -0.365000000
C     5.396000000    -1.372000000     1.012000000
H     5.788000000    -2.338000000     1.338000000
C     4.337000000    -1.076000000     2.077000000
C     3.676000000    -2.099000000     2.780000000
H     3.916000000    -3.126000000     2.513000000
H     6.210000000    -0.651000000     1.111000000
C     4.307000000    -2.532000000    -0.911000000
H     4.339000000    -3.450000000    -0.329000000
C     3.772000000    -2.557000000    -2.180000000
C     3.245000000    -3.864000000    -2.690000000
H     3.851000000    -4.686000000    -2.303000000
H     3.459000000    -3.857000000    -3.761000000
C     1.776000000    -3.991000000    -2.283000000
C     1.478000000    -4.667000000    -1.100000000
H     2.261000000    -5.150000000    -0.520000000
C     0.678000000    -3.451000000    -3.037000000
C    -0.630000000    -3.555000000    -2.531000000
H    -1.401000000    -2.918000000    -2.956000000
C    -0.856000000    -4.379000000    -1.486000000
O    -2.140000000    -4.559000000    -1.013000000
C    -2.744000000    -3.669000000    -0.081000000
C    -4.203000000    -3.302000000    -0.468000000
C    -5.128000000    -3.051000000     0.535000000
H    -4.745000000    -3.319000000     1.516000000
C    -4.544000000    -2.774000000    -1.727000000
H    -3.840000000    -2.858000000    -2.550000000
O    -2.685000000    -4.362000000     1.184000000
H    -2.141000000    -2.753000000    -0.172000000
C     0.140000000    -4.870000000    -0.686000000
C    -0.151000000    -5.607000000     0.637000000
H     0.667000000    -6.234000000     0.996000000
H    -1.006000000    -6.249000000     0.413000000
C    -0.347000000    -4.588000000     1.812000000
C     0.785000000    -4.180000000     2.552000000
H     1.737000000    -4.689000000     2.424000000
C    -1.619000000    -4.092000000     2.095000000
C    -1.751000000    -3.156000000     3.039000000
H    -2.726000000    -2.681000000     3.122000000
C    -0.628000000    -2.648000000     3.715000000
O    -0.655000000    -1.530000000     4.510000000
C     0.024000000    -0.398000000     4.022000000
C    -0.952000000     0.862000000     3.996000000
C    -2.257000000     0.735000000     3.503000000
H    -2.582000000    -0.194000000     3.042000000
C    -0.482000000     2.086000000     4.378000000
H     0.484000000     2.235000000     4.855000000
O     1.231000000    -0.174000000     4.670000000
H     0.196000000    -0.454000000     2.937000000
C     0.625000000    -3.257000000     3.587000000
C     1.853000000    -2.822000000     4.451000000
H     2.382000000    -3.742000000     4.706000000
H     1.542000000    -2.507000000     5.450000000
C     2.659000000    -1.766000000     3.717000000
C     2.383000000    -0.485000000     3.999000000
C     3.122000000     0.540000000     3.409000000
H     2.893000000     1.593000000     3.550000000
C     4.085000000     0.233000000     2.464000000
O     4.670000000     1.229000000     1.797000000
C     4.163000000     1.572000000     0.486000000
H     3.234000000     0.989000000     0.399000000
C     3.696000000     3.031000000     0.329000000
C     3.155000000     3.464000000    -0.863000000
H     3.082000000     2.695000000    -1.627000000
C     3.621000000     3.824000000     1.476000000
H     4.007000000     3.503000000     2.440000000
C     3.122000000     5.111000000     1.421000000
O     3.158000000     5.942000000     2.574000000
C     2.547000000     5.535000000     0.214000000
H     2.125000000     6.536000000     0.158000000
C     2.528000000     4.701000000    -0.888000000
O     2.055000000     5.233000000    -2.083000000
C     2.530000000     5.000000000    -3.313000000
C     1.798000000     4.184000000    -4.084000000
H     0.859000000     3.778000000    -3.717000000
C     3.696000000     5.572000000    -3.764000000
H     4.306000000     6.242000000    -3.164000000
C     4.113000000     5.332000000    -5.072000000
H     5.009000000     5.867000000    -5.377000000
C     3.314000000     4.543000000    -5.896000000
H     3.453000000     4.432000000    -6.968000000
C     2.241000000     3.836000000    -5.342000000
O     1.551000000     3.020000000    -6.185000000
C     0.868000000     1.903000000    -5.712000000
C    -0.515000000     1.872000000    -5.933000000
H    -0.990000000     2.728000000    -6.406000000
C    -1.286000000     0.832000000    -5.391000000
O    -2.666000000     0.882000000    -5.472000000
C    -3.568000000    -0.168000000    -5.283000000
C    -4.499000000    -0.255000000    -4.254000000
H    -4.545000000     0.530000000    -3.503000000
C    -3.591000000    -1.092000000    -6.327000000
H    -2.913000000    -0.879000000    -7.149000000
C    -4.471000000    -2.078000000    -6.345000000
H    -4.383000000    -2.845000000    -7.110000000
C    -5.337000000    -2.330000000    -5.255000000
H    -6.042000000    -3.157000000    -5.213000000
C    -5.294000000    -1.439000000    -4.136000000
O    -6.210000000    -1.607000000    -3.095000000
C    -5.810000000    -2.121000000    -1.899000000
C    -6.710000000    -1.979000000    -0.865000000
H    -7.661000000    -1.481000000    -1.033000000
C    -6.327000000    -2.416000000     0.387000000
O    -7.100000000    -2.135000000     1.476000000
C    -6.645000000    -1.315000000     2.460000000
C    -5.711000000    -0.249000000     2.231000000
H    -5.467000000    -0.012000000     1.199000000
C    -6.960000000    -1.594000000     3.760000000
H    -7.668000000    -2.397000000     3.950000000
C    -6.645000000    -0.647000000     4.780000000
H    -7.099000000    -0.723000000     5.764000000
C    -5.756000000     0.404000000     4.560000000
H    -5.453000000     1.103000000     5.335000000
C    -5.211000000     0.627000000     3.254000000
O    -4.389000000     1.703000000     2.990000000
C    -3.152000000     1.823000000     3.495000000
C    -2.624000000     3.095000000     3.837000000
H    -3.237000000     3.954000000     3.577000000
C    -1.284000000     3.225000000     4.158000000
O    -0.926000000     4.400000000     4.808000000
C     0.359000000     4.846000000     4.857000000
C     0.981000000     5.198000000     6.063000000
H     0.389000000     5.158000000     6.974000000
C     2.294000000     5.737000000     6.088000000
H     2.719000000     6.101000000     7.021000000
C     3.006000000     5.971000000     4.908000000
H     4.069000000     6.199000000     4.901000000
C     2.403000000     5.651000000     3.698000000
C     1.121000000     5.086000000     3.690000000
H     0.730000000     4.733000000     2.739000000
C    -1.821000000    -0.195000000     0.179000000
H    -2.664000000    -0.644000000     0.698000000
C    -0.551000000    -0.652000000     0.356000000
H    -0.323000000    -1.493000000     1.006000000
C     0.485000000    -0.038000000    -0.305000000
H     1.400000000    -0.554000000    -0.274000000
C     0.378000000     1.102000000    -1.020000000
H     1.225000000     1.598000000    -1.486000000
C    -0.886000000     1.573000000    -1.205000000
H    -1.017000000     2.420000000    -1.873000000
C    -1.984000000     0.988000000    -0.577000000
C    -3.311000000     1.553000000    -0.874000000
O    -3.433000000     2.731000000    -1.329000000
O    -4.327000000     0.919000000    -0.722000000
O    -9.146000000     1.100000000     0.412000000
H    -8.258000000     1.353000000     0.158000000
H    -9.497000000     0.654000000    -0.359000000
O    -2.208000000     8.005000000    -0.152000000
H    -3.151000000     7.997000000    -0.321000000
H    -2.098000000     8.639000000     0.557000000
O    -8.589000000     0.648000000    -2.700000000
H    -8.388000000     0.846000000    -3.614000000
H    -7.897000000     0.045000000    -2.427000000
O    -4.644000000     7.885000000    -1.426000000
H    -4.343000000     7.346000000    -2.157000000
H    -5.509000000     8.194000000    -1.697000000
O    -6.526000000     5.377000000    -1.398000000
H    -5.991000000     5.309000000    -0.608000000
H    -6.431000000     4.525000000    -1.825000000
O    -4.853000000     6.609000000    -4.091000000
H    -4.651000000     6.608000000    -5.027000000
H    -5.620000000     6.041000000    -4.011000000
O    -9.254000000     4.969000000    -0.532000000
H    -9.483000000     4.397000000    -1.264000000
H    -8.369000000     5.272000000    -0.733000000
O    -0.997000000     6.419000000     1.702000000
H    -1.026000000     7.175000000     1.114000000
H    -1.309000000     5.689000000     1.168000000
O    -3.654000000     3.824000000    -6.248000000
H    -3.077000000     3.899000000    -5.488000000
H    -3.507000000     2.937000000    -6.574000000
O    -1.836000000     4.212000000     0.242000000
H    -0.952000000     3.851000000     0.167000000
H    -2.346000000     3.734000000    -0.411000000
O    -1.829000000     3.720000000    -3.947000000
H    -2.369000000     3.478000000    -3.194000000
H    -1.425000000     4.550000000    -3.694000000
O    -5.525000000     2.958000000    -2.745000000
H    -6.023000000     2.417000000    -2.132000000
H    -4.633000000     2.956000000    -2.397000000
O    -6.718000000     1.966000000    -0.324000000
H    -6.273000000     2.625000000     0.208000000
H    -6.037000000     1.326000000    -0.533000000
O    -6.120000000     3.916000000    -5.145000000
H    -5.236000000     3.980000000    -5.508000000
H    -6.015000000     3.393000000    -4.350000000
O    -7.187000000     4.207000000     2.137000000
H    -7.751000000     4.079000000     1.375000000
H    -6.397000000     4.616000000     1.783000000
O    -0.488000000     6.263000000    -2.210000000
H    -0.856000000     6.958000000    -1.664000000
H     0.411000000     6.163000000    -1.896000000
O    -8.564000000     1.884000000     3.695000000
H    -7.709000000     2.039000000     3.292000000
H    -9.190000000     2.270000000     3.082000000
O    -4.894000000     4.180000000     0.423000000
H    -4.089000000     4.486000000     0.841000000
H    -4.594000000     3.624000000    -0.296000000
O    -9.842000000     3.253000000    -2.511000000
H    -9.407000000     2.401000000    -2.461000000
H    -9.873000000     3.452000000    -3.447000000
