215
-1459.09080
C    -1.534000000    -4.986000000     0.285000000
H    -0.686000000    -4.825000000     0.946000000
C    -1.539000000    -4.553000000    -1.030000000
C    -2.725000000    -4.665000000    -1.787000000
H    -2.936000000    -4.350000000    -2.807000000
C    -0.296000000    -3.915000000    -1.582000000
O     0.814000000    -4.573000000    -1.038000000
H    -0.307000000    -2.835000000    -1.374000000
O    -0.276000000    -3.930000000    -3.053000000
C     0.123000000    -2.839000000    -3.642000000
C    -0.886000000    -1.931000000    -3.955000000
H    -1.921000000    -2.151000000    -3.705000000
C    -0.566000000    -0.677000000    -4.465000000
O    -1.526000000     0.244000000    -4.697000000
C     0.748000000    -0.417000000    -4.754000000
C     1.145000000     0.989000000    -5.362000000
H     2.030000000     0.844000000    -5.985000000
C     1.457000000     2.044000000    -4.346000000
C     2.709000000     2.188000000    -3.746000000
H     3.506000000     1.587000000    -4.176000000
H     0.390000000     1.385000000    -6.045000000
C     1.755000000    -1.342000000    -4.514000000
H     2.806000000    -1.061000000    -4.516000000
C     1.437000000    -2.517000000    -3.859000000
C     2.500000000    -3.569000000    -3.403000000
H     3.430000000    -3.466000000    -3.965000000
H     2.146000000    -4.575000000    -3.639000000
C     2.799000000    -3.326000000    -1.959000000
C     3.887000000    -2.508000000    -1.562000000
H     4.458000000    -2.105000000    -2.395000000
C     2.037000000    -3.887000000    -0.924000000
C     2.298000000    -3.633000000     0.422000000
H     1.777000000    -4.166000000     1.214000000
C     3.402000000    -2.785000000     0.723000000
O     3.514000000    -2.547000000     2.071000000
C     3.108000000    -1.271000000     2.478000000
C     2.394000000    -1.402000000     3.792000000
C     2.346000000    -0.296000000     4.621000000
H     2.885000000     0.600000000     4.324000000
C     1.525000000    -2.493000000     4.089000000
H     1.425000000    -3.249000000     3.314000000
O     4.190000000    -0.299000000     2.513000000
H     2.363000000    -0.878000000     1.771000000
C     4.198000000    -2.225000000    -0.260000000
C     5.339000000    -1.358000000     0.072000000
H     6.139000000    -1.463000000    -0.664000000
H     5.885000000    -1.756000000     0.929000000
C     4.885000000     0.079000000     0.285000000
C     4.868000000     0.900000000    -0.874000000
H     5.217000000     0.635000000    -1.869000000
C     4.427000000     0.549000000     1.481000000
C     3.931000000     1.808000000     1.700000000
H     3.672000000     2.260000000     2.655000000
C     4.018000000     2.680000000     0.543000000
O     3.373000000     3.882000000     0.686000000
C     1.971000000     3.892000000     0.354000000
C     1.100000000     4.557000000     1.315000000
C     1.568000000     4.608000000     2.648000000
H     2.564000000     4.281000000     2.936000000
C    -0.162000000     5.049000000     0.980000000
H    -0.572000000     5.069000000    -0.026000000
O     1.920000000     4.532000000    -0.976000000
H     1.660000000     2.838000000     0.395000000
C     4.371000000     2.234000000    -0.739000000
C     4.277000000     3.076000000    -1.971000000
H     5.068000000     2.852000000    -2.690000000
H     4.367000000     4.135000000    -1.723000000
C     2.889000000     2.931000000    -2.595000000
C     1.858000000     3.752000000    -2.144000000
C     0.562000000     3.547000000    -2.660000000
H    -0.299000000     4.000000000    -2.176000000
C     0.333000000     2.685000000    -3.710000000
O    -0.894000000     2.487000000    -4.079000000
C    -1.572000000     1.260000000    -3.713000000
H    -0.976000000     0.994000000    -2.828000000
C    -3.031000000     1.446000000    -3.159000000
C    -3.866000000     0.361000000    -2.989000000
H    -3.444000000    -0.622000000    -3.181000000
C    -3.487000000     2.714000000    -2.787000000
H    -2.888000000     3.606000000    -2.956000000
C    -4.705000000     2.885000000    -2.144000000
O    -5.162000000     4.079000000    -1.622000000
C    -5.599000000     1.796000000    -2.112000000
H    -6.558000000     1.967000000    -1.630000000
C    -5.172000000     0.486000000    -2.491000000
O    -5.936000000    -0.630000000    -2.021000000
C    -5.908000000    -1.845000000    -2.744000000
C    -5.675000000    -2.954000000    -1.964000000
H    -5.352000000    -2.917000000    -0.927000000
C    -6.251000000    -2.001000000    -4.069000000
H    -6.386000000    -1.118000000    -4.688000000
C    -6.270000000    -3.233000000    -4.666000000
H    -6.468000000    -3.307000000    -5.733000000
C    -5.965000000    -4.326000000    -3.918000000
H    -5.960000000    -5.312000000    -4.376000000
C    -5.604000000    -4.231000000    -2.584000000
O    -5.103000000    -5.328000000    -1.846000000
C    -3.898000000    -5.210000000    -1.214000000
C    -3.821000000    -5.778000000     0.094000000
H    -4.736000000    -6.177000000     0.525000000
C    -2.643000000    -5.561000000     0.825000000
O    -2.747000000    -5.838000000     2.258000000
C    -1.656000000    -5.804000000     3.073000000
C    -1.371000000    -4.650000000     3.829000000
H    -2.043000000    -3.796000000     3.847000000
C    -0.893000000    -6.986000000     3.177000000
H    -1.082000000    -7.841000000     2.533000000
C     0.176000000    -6.968000000     4.073000000
H     0.796000000    -7.854000000     4.185000000
C     0.416000000    -5.882000000     4.902000000
H     1.168000000    -5.974000000     5.682000000
C    -0.297000000    -4.725000000     4.786000000
O     0.056000000    -3.626000000     5.544000000
C     0.707000000    -2.455000000     5.207000000
C     0.832000000    -1.455000000     6.122000000
H     0.307000000    -1.458000000     7.074000000
C     1.584000000    -0.302000000     5.821000000
O     1.451000000     0.779000000     6.594000000
C     1.990000000     1.941000000     6.279000000
C     1.201000000     2.996000000     5.787000000
H     0.154000000     2.774000000     5.596000000
C     3.385000000     2.129000000     6.508000000
H     3.916000000     1.270000000     6.910000000
C     4.006000000     3.376000000     6.212000000
H     5.041000000     3.599000000     6.457000000
C     3.160000000     4.408000000     5.743000000
H     3.676000000     5.327000000     5.479000000
C     1.769000000     4.209000000     5.523000000
O     1.020000000     5.205000000     4.983000000
C     0.725000000     5.114000000     3.632000000
C    -0.570000000     5.597000000     3.257000000
H    -1.205000000     5.975000000     4.054000000
C    -1.032000000     5.582000000     1.932000000
O    -2.222000000     6.264000000     1.634000000
C    -2.877000000     6.180000000     0.388000000
C    -2.763000000     7.258000000    -0.471000000
H    -2.264000000     8.105000000    -0.006000000
C    -3.350000000     7.264000000    -1.703000000
H    -3.151000000     8.005000000    -2.473000000
C    -4.077000000     6.174000000    -2.081000000
H    -4.644000000     6.232000000    -3.006000000
C    -4.329000000     5.125000000    -1.187000000
C    -3.670000000     5.073000000     0.016000000
H    -3.652000000     4.181000000     0.638000000
C    -1.631000000    -0.734000000     0.944000000
H    -1.805000000    -1.720000000     1.367000000
C    -0.482000000    -0.404000000     0.136000000
H     0.319000000    -1.130000000     0.017000000
C    -0.313000000     0.828000000    -0.429000000
H     0.501000000     1.051000000    -1.095000000
C    -1.304000000     1.758000000    -0.203000000
H    -1.155000000     2.710000000    -0.704000000
C    -2.360000000     1.504000000     0.649000000
H    -3.084000000     2.275000000     0.897000000
C    -2.561000000     0.219000000     1.185000000
C    -3.863000000    -0.029000000     2.016000000
O    -4.407000000     0.942000000     2.548000000
O    -3.972000000    -1.098000000     2.548000000
O    -7.924000000    -1.176000000     2.676000000
H    -7.964000000    -0.233000000     2.835000000
H    -7.361000000    -1.266000000     1.907000000
O    -6.132000000     2.239000000     0.961000000
H    -5.714000000     1.714000000     1.644000000
H    -5.911000000     3.143000000     1.186000000
O    -6.604000000     2.653000000     6.222000000
H    -7.496000000     2.769000000     6.549000000
H    -6.229000000     3.533000000     6.234000000
O    -5.828000000    -1.935000000     4.438000000
H    -5.185000000    -1.545000000     3.847000000
H    -6.660000000    -1.861000000     3.969000000
O    -5.784000000     0.451000000     7.545000000
H    -6.087000000     1.273000000     7.160000000
H    -5.118000000     0.714000000     8.180000000
O    -6.142000000    -5.120000000     3.438000000
H    -5.475000000    -5.312000000     4.097000000
H    -6.945000000    -4.984000000     3.942000000
O    -4.521000000    -1.651000000     6.757000000
H    -4.897000000    -0.778000000     6.872000000
H    -5.088000000    -2.073000000     6.111000000
O    -6.844000000     1.339000000     3.880000000
H    -6.794000000     1.624000000     4.793000000
H    -5.932000000     1.239000000     3.610000000
O    -5.641000000    -3.031000000     1.772000000
H    -5.055000000    -2.412000000     2.207000000
H    -5.791000000    -3.717000000     2.423000000
O    -5.238000000     4.563000000     2.796000000
H    -5.899000000     4.399000000     3.468000000
H    -4.501000000     4.005000000     3.043000000
O    -8.675000000    -0.024000000     5.634000000
H    -8.511000000     0.548000000     6.384000000
H    -7.936000000     0.134000000     5.047000000
O    -2.311000000    -0.989000000     4.617000000
H    -2.857000000    -0.884000000     3.838000000
H    -2.837000000    -1.528000000     5.208000000
O    -1.426000000     1.080000000     7.222000000
H    -1.999000000     0.778000000     6.517000000
H    -0.544000000     0.850000000     6.930000000
O    -3.034000000     2.853000000     3.781000000
H    -3.611000000     2.152000000     3.476000000
H    -2.150000000     2.528000000     3.608000000
O    -0.632000000     1.008000000     3.405000000
H    -1.246000000     0.279000000     3.484000000
H    -0.446000000     1.064000000     2.467000000
O    -7.725000000    -4.393000000     0.720000000
H    -7.589000000    -5.326000000     0.551000000
H    -6.988000000    -4.140000000     1.276000000
O    -2.842000000     3.463000000     6.591000000
H    -2.244000000     2.783000000     6.900000000
H    -2.827000000     3.379000000     5.637000000
O    -8.500000000     1.170000000     0.046000000
H    -8.500000000     0.228000000     0.211000000
H    -7.581000000     1.427000000     0.121000000
O    -8.141000000    -1.407000000    -0.067000000
H    -8.151000000    -2.364000000    -0.039000000
H    -7.238000000    -1.184000000    -0.296000000
