215
-1434.51687
C    -1.976000000    -4.942000000    -0.070000000
H    -0.963000000    -5.245000000     0.186000000
C    -2.342000000    -4.169000000    -1.125000000
C    -3.616000000    -3.522000000    -1.150000000
H    -3.666000000    -2.686000000    -1.843000000
C    -1.217000000    -3.644000000    -2.067000000
O    -0.063000000    -4.555000000    -2.060000000
H    -0.941000000    -2.671000000    -1.634000000
O    -1.676000000    -3.511000000    -3.434000000
C    -1.322000000    -2.369000000    -4.067000000
C    -2.218000000    -1.285000000    -4.206000000
H    -3.217000000    -1.342000000    -3.780000000
C    -1.775000000    -0.051000000    -4.604000000
O    -2.569000000     0.976000000    -4.224000000
C    -0.416000000     0.135000000    -4.955000000
C     0.117000000     1.509000000    -5.275000000
H     0.854000000     1.429000000    -6.077000000
C     0.703000000     2.290000000    -4.142000000
C     2.101000000     2.380000000    -3.911000000
H     2.759000000     1.818000000    -4.568000000
H    -0.800000000     2.001000000    -5.604000000
C     0.458000000    -0.899000000    -4.861000000
H     1.456000000    -0.631000000    -5.198000000
C     0.026000000    -2.189000000    -4.504000000
C     1.141000000    -3.248000000    -4.412000000
H     1.933000000    -2.878000000    -5.066000000
H     0.790000000    -4.260000000    -4.621000000
C     1.854000000    -3.311000000    -3.044000000
C     3.020000000    -2.612000000    -2.810000000
H     3.488000000    -1.982000000    -3.562000000
C     1.184000000    -3.939000000    -1.986000000
C     1.813000000    -3.967000000    -0.784000000
H     1.286000000    -4.413000000     0.055000000
C     3.017000000    -3.293000000    -0.517000000
O     3.552000000    -3.336000000     0.792000000
C     3.474000000    -2.145000000     1.484000000
C     3.006000000    -2.316000000     2.940000000
C     3.123000000    -1.326000000     3.901000000
H     3.779000000    -0.468000000     3.780000000
C     2.144000000    -3.356000000     3.248000000
H     1.989000000    -4.163000000     2.536000000
O     4.600000000    -1.192000000     1.367000000
H     2.610000000    -1.519000000     1.215000000
C     3.673000000    -2.631000000    -1.578000000
C     4.956000000    -1.885000000    -1.433000000
H     5.561000000    -1.758000000    -2.334000000
H     5.566000000    -2.344000000    -0.653000000
C     4.670000000    -0.470000000    -0.886000000
C     4.558000000     0.553000000    -1.826000000
H     4.533000000     0.271000000    -2.875000000
C     4.519000000    -0.232000000     0.452000000
C     4.300000000     1.054000000     0.903000000
H     4.203000000     1.229000000     1.971000000
C     4.127000000     2.074000000    -0.076000000
O     3.800000000     3.354000000     0.311000000
C     2.451000000     3.610000000     0.306000000
C     2.001000000     4.379000000     1.618000000
C     2.610000000     4.016000000     2.782000000
H     3.533000000     3.442000000     2.751000000
C     0.869000000     5.183000000     1.567000000
H     0.378000000     5.433000000     0.629000000
O     2.060000000     4.405000000    -0.820000000
H     1.899000000     2.665000000     0.194000000
C     4.271000000     1.860000000    -1.455000000
C     4.076000000     3.005000000    -2.468000000
H     4.730000000     2.608000000    -3.247000000
H     4.450000000     3.983000000    -2.158000000
C     2.603000000     3.091000000    -2.796000000
C     1.689000000     3.731000000    -1.952000000
C     0.324000000     3.779000000    -2.236000000
H    -0.370000000     4.350000000    -1.625000000
C    -0.163000000     3.020000000    -3.338000000
O    -1.523000000     2.857000000    -3.516000000
C    -2.188000000     1.693000000    -3.082000000
H    -1.622000000     0.986000000    -2.457000000
C    -3.421000000     2.089000000    -2.299000000
C    -4.673000000     1.431000000    -2.357000000
H    -4.794000000     0.698000000    -3.150000000
C    -3.284000000     3.048000000    -1.302000000
H    -2.290000000     3.357000000    -0.990000000
C    -4.337000000     3.495000000    -0.496000000
O    -4.208000000     4.371000000     0.562000000
C    -5.563000000     2.852000000    -0.643000000
H    -6.330000000     3.044000000     0.103000000
C    -5.760000000     1.869000000    -1.596000000
O    -6.975000000     1.246000000    -1.617000000
C    -6.985000000    -0.100000000    -1.857000000
C    -6.229000000    -0.973000000    -1.067000000
H    -5.746000000    -0.590000000    -0.172000000
C    -7.608000000    -0.619000000    -2.967000000
H    -8.155000000     0.064000000    -3.612000000
C    -7.466000000    -1.953000000    -3.380000000
H    -7.885000000    -2.350000000    -4.301000000
C    -6.773000000    -2.793000000    -2.540000000
H    -6.755000000    -3.839000000    -2.834000000
C    -6.279000000    -2.372000000    -1.318000000
O    -5.872000000    -3.283000000    -0.338000000
C    -4.610000000    -3.868000000    -0.260000000
C    -4.254000000    -4.767000000     0.724000000
H    -4.969000000    -5.010000000     1.506000000
C    -2.961000000    -5.191000000     0.835000000
O    -2.694000000    -6.131000000     1.861000000
C    -1.544000000    -6.336000000     2.571000000
C    -1.058000000    -5.296000000     3.370000000
H    -1.606000000    -4.368000000     3.513000000
C    -0.979000000    -7.524000000     2.380000000
H    -1.403000000    -8.293000000     1.739000000
C     0.222000000    -7.752000000     3.070000000
H     0.859000000    -8.609000000     2.867000000
C     0.776000000    -6.792000000     3.911000000
H     1.728000000    -6.915000000     4.421000000
C     0.145000000    -5.527000000     3.982000000
O     0.668000000    -4.535000000     4.794000000
C     1.552000000    -3.514000000     4.517000000
C     1.761000000    -2.548000000     5.470000000
H     1.199000000    -2.641000000     6.395000000
C     2.495000000    -1.447000000     5.122000000
O     2.492000000    -0.403000000     6.098000000
C     3.247000000     0.722000000     6.017000000
C     2.637000000     1.925000000     5.619000000
H     1.579000000     1.924000000     5.368000000
C     4.613000000     0.651000000     6.165000000
H     5.051000000    -0.334000000     6.304000000
C     5.393000000     1.832000000     6.027000000
H     6.474000000     1.765000000     6.113000000
C     4.825000000     3.057000000     5.696000000
H     5.455000000     3.924000000     5.519000000
C     3.430000000     3.090000000     5.542000000
O     2.789000000     4.249000000     5.194000000
C     2.116000000     4.518000000     3.993000000
C     0.936000000     5.292000000     4.016000000
H     0.465000000     5.560000000     4.959000000
C     0.425000000     5.684000000     2.835000000
O    -0.656000000     6.547000000     2.870000000
C    -1.567000000     6.521000000     1.814000000
C    -1.544000000     7.517000000     0.846000000
H    -0.827000000     8.331000000     0.915000000
C    -2.175000000     7.342000000    -0.406000000
H    -2.048000000     8.137000000    -1.136000000
C    -3.130000000     6.307000000    -0.453000000
H    -3.789000000     6.227000000    -1.314000000
C    -3.266000000     5.369000000     0.580000000
C    -2.424000000     5.449000000     1.705000000
H    -2.555000000     4.755000000     2.531000000
C    -1.565000000    -0.880000000     1.687000000
H    -1.904000000    -1.867000000     1.993000000
C    -0.233000000    -0.760000000     1.192000000
H     0.374000000    -1.655000000     1.305000000
C     0.112000000     0.503000000     0.835000000
H     1.133000000     0.819000000     0.603000000
C    -0.784000000     1.561000000     0.949000000
H    -0.459000000     2.566000000     0.692000000
C    -2.059000000     1.410000000     1.437000000
H    -2.694000000     2.276000000     1.605000000
C    -2.496000000     0.149000000     1.765000000
C    -3.769000000    -0.097000000     2.525000000
O    -4.554000000     0.836000000     2.643000000
O    -3.966000000    -1.085000000     3.184000000
O    -7.058000000    -1.158000000     2.347000000
H    -6.325000000    -0.711000000     2.769000000
H    -6.719000000    -2.028000000     2.134000000
O    -6.620000000     2.565000000     2.732000000
H    -5.872000000     1.977000000     2.628000000
H    -6.988000000     2.335000000     3.585000000
O    -5.060000000    -0.856000000     5.498000000
H    -5.099000000     0.045000000     5.819000000
H    -4.584000000    -0.794000000     4.669000000
O    -6.564000000     5.355000000     1.758000000
H    -5.945000000     5.866000000     1.237000000
H    -6.291000000     4.446000000     1.631000000
O    -9.085000000     3.569000000     1.707000000
H    -8.300000000     3.238000000     2.144000000
H    -9.384000000     2.839000000     1.166000000
O    -6.852000000    -3.150000000     6.008000000
H    -6.325000000    -3.912000000     5.769000000
H    -6.306000000    -2.399000000     5.777000000
O    -6.724000000     1.883000000     5.295000000
H    -5.839000000     2.246000000     5.312000000
H    -7.069000000     2.054000000     6.172000000
O    -9.776000000    -1.454000000     0.761000000
H    -9.214000000    -1.379000000     1.532000000
H   -10.528000000    -1.964000000     1.062000000
O    -7.384000000    -4.575000000     2.832000000
H    -7.345000000    -5.486000000     3.124000000
H    -6.682000000    -4.139000000     3.315000000
O    -5.721000000    -5.654000000     5.440000000
H    -5.416000000    -5.164000000     4.676000000
H    -5.599000000    -6.573000000     5.200000000
O    -8.955000000     1.270000000     0.221000000
H    -8.977000000     0.314000000     0.201000000
H    -8.921000000     1.528000000    -0.700000000
O    -3.969000000     2.641000000     4.617000000
H    -4.396000000     2.071000000     3.978000000
H    -3.134000000     2.211000000     4.802000000
O    -4.836000000    -3.734000000     3.913000000
H    -4.514000000    -3.058000000     3.316000000
H    -4.181000000    -3.770000000     4.610000000
O    -3.505000000    -4.000000000     6.511000000
H    -2.947000000    -3.323000000     6.896000000
H    -3.262000000    -4.802000000     6.973000000
O    -1.870000000     1.278000000     6.048000000
H    -2.512000000     0.570000000     6.110000000
H    -1.364000000     1.213000000     6.858000000
O    -3.082000000     1.093000000     9.177000000
H    -3.442000000     0.287000000     8.807000000
H    -2.705000000     1.554000000     8.427000000
O    -5.126000000     4.879000000     5.488000000
H    -4.696000000     5.695000000     5.233000000
H    -4.519000000     4.192000000     5.215000000
O    -9.023000000     0.713000000     3.083000000
H    -8.888000000     1.411000000     2.443000000
H    -8.263000000     0.141000000     2.977000000
O    -3.221000000    -1.225000000     7.414000000
H    -3.820000000    -1.513000000     6.726000000
H    -3.424000000    -1.790000000     8.160000000
