215
-1437.45392
C    -0.567000000    -5.305000000     0.643000000
H     0.477000000    -5.498000000     0.876000000
C    -0.910000000    -4.745000000    -0.577000000
C    -2.241000000    -4.378000000    -0.757000000
H    -2.516000000    -3.736000000    -1.589000000
C     0.159000000    -4.076000000    -1.457000000
O     1.490000000    -4.532000000    -1.272000000
H     0.195000000    -2.993000000    -1.267000000
O    -0.314000000    -4.154000000    -2.815000000
C    -0.061000000    -3.030000000    -3.624000000
C    -1.161000000    -2.219000000    -3.901000000
H    -2.180000000    -2.539000000    -3.697000000
C    -1.030000000    -0.975000000    -4.480000000
O    -2.152000000    -0.167000000    -4.692000000
C     0.240000000    -0.540000000    -4.999000000
C     0.340000000     0.846000000    -5.549000000
H     1.081000000     0.917000000    -6.349000000
C     0.552000000     1.968000000    -4.493000000
C     1.804000000     2.450000000    -4.165000000
H     2.683000000     2.053000000    -4.666000000
H    -0.578000000     1.180000000    -6.036000000
C     1.362000000    -1.283000000    -4.627000000
H     2.261000000    -0.745000000    -4.918000000
C     1.226000000    -2.548000000    -4.015000000
C     2.427000000    -3.378000000    -3.747000000
H     3.190000000    -3.047000000    -4.455000000
H     2.228000000    -4.451000000    -3.785000000
C     2.974000000    -3.024000000    -2.342000000
C     3.916000000    -2.025000000    -2.199000000
H     4.233000000    -1.425000000    -3.048000000
C     2.547000000    -3.675000000    -1.191000000
C     3.033000000    -3.351000000     0.076000000
H     2.706000000    -3.871000000     0.973000000
C     3.913000000    -2.311000000     0.163000000
O     4.407000000    -1.922000000     1.388000000
C     3.754000000    -0.814000000     2.010000000
C     3.540000000    -1.022000000     3.437000000
C     3.622000000     0.034000000     4.374000000
H     3.821000000     1.067000000     4.102000000
C     2.996000000    -2.240000000     3.941000000
H     2.877000000    -3.117000000     3.309000000
O     4.483000000     0.407000000     1.860000000
H     2.749000000    -0.765000000     1.566000000
C     4.382000000    -1.660000000    -0.977000000
C     5.406000000    -0.469000000    -0.826000000
H     5.799000000    -0.454000000    -1.844000000
H     6.144000000    -0.761000000    -0.076000000
C     4.669000000     0.824000000    -0.535000000
C     4.445000000     1.687000000    -1.567000000
H     4.591000000     1.393000000    -2.603000000
C     4.376000000     1.245000000     0.744000000
C     3.705000000     2.420000000     0.968000000
H     3.332000000     2.701000000     1.950000000
C     3.414000000     3.262000000    -0.127000000
O     2.632000000     4.398000000     0.090000000
C     1.223000000     4.321000000    -0.194000000
C     0.340000000     4.635000000     1.011000000
C     0.570000000     4.110000000     2.303000000
H     1.433000000     3.471000000     2.470000000
C    -0.823000000     5.338000000     0.755000000
H    -1.115000000     5.526000000    -0.275000000
O     0.920000000     4.958000000    -1.513000000
H     1.020000000     3.241000000    -0.145000000
C     3.778000000     2.953000000    -1.429000000
C     3.443000000     3.705000000    -2.712000000
H     4.175000000     3.431000000    -3.475000000
H     3.637000000     4.767000000    -2.549000000
C     1.984000000     3.507000000    -3.232000000
C     0.852000000     4.015000000    -2.535000000
C    -0.364000000     3.550000000    -2.981000000
H    -1.263000000     3.850000000    -2.448000000
C    -0.575000000     2.620000000    -3.965000000
O    -1.897000000     2.182000000    -4.218000000
C    -2.280000000     0.841000000    -3.670000000
H    -1.576000000     0.568000000    -2.870000000
C    -3.666000000     0.853000000    -3.058000000
C    -4.607000000    -0.111000000    -3.370000000
H    -4.347000000    -0.909000000    -4.061000000
C    -4.050000000     1.880000000    -2.167000000
H    -3.332000000     2.622000000    -1.827000000
C    -5.280000000     1.822000000    -1.393000000
O    -5.510000000     2.676000000    -0.425000000
C    -6.146000000     0.835000000    -1.691000000
H    -7.135000000     0.729000000    -1.253000000
C    -5.854000000    -0.059000000    -2.693000000
O    -6.674000000    -1.157000000    -2.837000000
C    -6.219000000    -2.447000000    -2.571000000
C    -5.607000000    -2.660000000    -1.367000000
H    -5.505000000    -1.812000000    -0.695000000
C    -6.463000000    -3.533000000    -3.413000000
H    -6.899000000    -3.279000000    -4.376000000
C    -6.117000000    -4.823000000    -3.085000000
H    -6.434000000    -5.618000000    -3.755000000
C    -5.499000000    -5.037000000    -1.891000000
H    -5.130000000    -6.031000000    -1.651000000
C    -5.219000000    -3.988000000    -0.980000000
O    -4.520000000    -4.123000000     0.133000000
C    -3.189000000    -4.607000000     0.206000000
C    -2.870000000    -5.237000000     1.402000000
H    -3.599000000    -5.379000000     2.197000000
C    -1.529000000    -5.572000000     1.631000000
O    -1.147000000    -6.063000000     2.825000000
C     0.028000000    -5.863000000     3.424000000
C     0.229000000    -4.750000000     4.239000000
H    -0.560000000    -4.003000000     4.240000000
C     0.971000000    -6.857000000     3.488000000
H     0.864000000    -7.810000000     2.976000000
C     2.126000000    -6.666000000     4.297000000
H     2.894000000    -7.435000000     4.332000000
C     2.388000000    -5.498000000     4.981000000
H     3.310000000    -5.379000000     5.545000000
C     1.449000000    -4.457000000     4.847000000
O     1.660000000    -3.341000000     5.579000000
C     2.623000000    -2.381000000     5.270000000
C     2.813000000    -1.333000000     6.161000000
H     2.464000000    -1.426000000     7.186000000
C     3.278000000    -0.109000000     5.714000000
O     3.304000000     0.985000000     6.506000000
C     2.924000000     2.293000000     6.124000000
C     1.693000000     2.588000000     5.618000000
H     0.909000000     1.840000000     5.704000000
C     3.899000000     3.288000000     6.178000000
H     4.862000000     3.065000000     6.631000000
C     3.589000000     4.555000000     5.703000000
H     4.342000000     5.338000000     5.750000000
C     2.352000000     4.895000000     5.135000000
H     2.144000000     5.883000000     4.734000000
C     1.355000000     3.880000000     5.087000000
O     0.112000000     4.030000000     4.652000000
C    -0.214000000     4.461000000     3.389000000
C    -1.319000000     5.302000000     3.162000000
H    -1.950000000     5.691000000     3.957000000
C    -1.669000000     5.674000000     1.869000000
O    -2.918000000     6.202000000     1.640000000
C    -3.855000000     5.788000000     0.657000000
C    -4.212000000     6.715000000    -0.317000000
H    -3.973000000     7.775000000    -0.320000000
C    -5.011000000     6.220000000    -1.343000000
H    -5.444000000     6.954000000    -2.017000000
C    -5.466000000     4.924000000    -1.420000000
H    -6.178000000     4.597000000    -2.174000000
C    -5.076000000     4.008000000    -0.457000000
C    -4.252000000     4.455000000     0.585000000
H    -3.855000000     3.762000000     1.323000000
C    -1.750000000    -1.849000000     1.593000000
H    -1.779000000    -2.609000000     2.369000000
C    -0.553000000    -1.595000000     0.981000000
H     0.315000000    -2.226000000     1.151000000
C    -0.457000000    -0.627000000     0.015000000
H     0.533000000    -0.589000000    -0.561000000
C    -1.538000000     0.237000000    -0.163000000
H    -1.430000000     1.126000000    -0.780000000
C    -2.774000000     0.045000000     0.536000000
H    -3.689000000     0.587000000     0.313000000
C    -2.840000000    -1.020000000     1.450000000
C    -4.164000000    -1.237000000     2.237000000
O    -4.954000000    -0.330000000     2.463000000
O    -4.288000000    -2.360000000     2.726000000
O    -7.221000000    -0.620000000     1.164000000
H    -7.384000000    -1.559000000     1.259000000
H    -6.354000000    -0.488000000     1.548000000
O    -6.645000000     2.100000000     2.392000000
H    -6.028000000     1.394000000     2.586000000
H    -6.975000000     1.896000000     1.517000000
O    -4.055000000     4.404000000     4.629000000
H    -3.404000000     3.748000000     4.876000000
H    -4.856000000     4.129000000     5.076000000
O    -5.653000000    -1.719000000     6.508000000
H    -6.102000000    -2.543000000     6.700000000
H    -4.759000000    -1.980000000     6.286000000
O    -6.572000000     2.740000000     5.129000000
H    -6.937000000     2.721000000     4.245000000
H    -5.917000000     2.042000000     5.134000000
O    -6.287000000    -6.128000000     2.861000000
H    -6.112000000    -6.694000000     2.110000000
H    -5.680000000    -6.432000000     3.537000000
O    -8.976000000     1.364000000     0.756000000
H    -9.516000000     1.036000000     0.037000000
H    -8.263000000     0.729000000     0.828000000
O    -8.645000000    -4.366000000     0.867000000
H    -7.958000000    -3.780000000     1.185000000
H    -9.315000000    -4.344000000     1.551000000
O    -2.503000000    -5.031000000     5.707000000
H    -1.979000000    -4.971000000     6.506000000
H    -2.592000000    -4.125000000     5.410000000
O    -2.217000000     0.458000000     5.408000000
H    -1.759000000    -0.374000000     5.288000000
H    -3.096000000     0.300000000     5.066000000
O    -4.207000000    -4.060000000     8.041000000
H    -4.536000000    -3.827000000     7.172000000
H    -4.146000000    -5.016000000     8.025000000
O    -7.004000000    -3.069000000     2.685000000
H    -6.067000000    -2.871000000     2.666000000
H    -7.097000000    -3.723000000     3.378000000
O    -4.515000000    -6.754000000     4.520000000
H    -3.758000000    -6.239000000     4.798000000
H    -4.284000000    -7.657000000     4.740000000
O    -5.131000000     0.624000000     5.091000000
H    -5.176000000     0.253000000     4.209000000
H    -5.368000000    -0.102000000     5.668000000
O    -3.253000000    -2.269000000     5.158000000
H    -3.686000000    -2.636000000     4.387000000
H    -2.342000000    -2.151000000     4.888000000
O    -0.111000000     0.579000000     2.916000000
H    -0.418000000    -0.052000000     2.265000000
H    -0.893000000     1.078000000     3.153000000
O    -0.362000000    -1.519000000     4.709000000
H     0.085000000    -0.920000000     4.110000000
H     0.346000000    -1.981000000     5.157000000
O    -5.958000000    -4.415000000     5.525000000
H    -5.399000000    -5.052000000     5.080000000
H    -6.846000000    -4.746000000     5.399000000
O    -9.954000000    -1.217000000     3.120000000
H    -9.908000000    -1.103000000     4.070000000
H    -9.058000000    -1.069000000     2.818000000
