215
-1449.52525
C    -1.074000000    -5.267000000    -0.190000000
H    -0.020000000    -5.240000000     0.076000000
C    -1.606000000    -4.349000000    -1.136000000
C    -2.984000000    -4.221000000    -1.133000000
H    -3.305000000    -3.527000000    -1.904000000
C    -0.721000000    -3.555000000    -2.009000000
O     0.465000000    -4.327000000    -2.234000000
H    -0.595000000    -2.571000000    -1.535000000
O    -1.310000000    -3.418000000    -3.318000000
C    -1.131000000    -2.168000000    -3.940000000
C    -2.150000000    -1.293000000    -4.010000000
H    -3.164000000    -1.622000000    -3.794000000
C    -1.947000000     0.039000000    -4.435000000
O    -2.908000000     0.976000000    -4.230000000
C    -0.671000000     0.335000000    -4.959000000
C    -0.368000000     1.739000000    -5.413000000
H     0.260000000     1.857000000    -6.298000000
C     0.111000000     2.510000000    -4.248000000
C     1.438000000     2.635000000    -3.891000000
H     2.065000000     2.152000000    -4.636000000
H    -1.346000000     2.080000000    -5.760000000
C     0.368000000    -0.587000000    -4.909000000
H     1.315000000    -0.373000000    -5.397000000
C     0.151000000    -1.871000000    -4.428000000
C     1.272000000    -2.850000000    -4.515000000
H     1.896000000    -2.655000000    -5.390000000
H     1.035000000    -3.901000000    -4.691000000
C     2.094000000    -2.870000000    -3.295000000
C     3.173000000    -1.996000000    -3.159000000
H     3.542000000    -1.371000000    -3.968000000
C     1.695000000    -3.681000000    -2.227000000
C     2.468000000    -3.639000000    -1.052000000
H     2.124000000    -4.159000000    -0.161000000
C     3.553000000    -2.793000000    -0.901000000
O     4.076000000    -2.638000000     0.388000000
C     3.694000000    -1.424000000     1.059000000
C     3.327000000    -1.697000000     2.502000000
C     3.698000000    -0.837000000     3.577000000
H     4.189000000     0.095000000     3.309000000
C     2.622000000    -2.903000000     2.868000000
H     2.489000000    -3.600000000     2.045000000
O     4.792000000    -0.525000000     1.023000000
H     2.751000000    -1.132000000     0.574000000
C     3.949000000    -1.940000000    -1.957000000
C     5.188000000    -1.070000000    -1.794000000
H     5.679000000    -0.910000000    -2.757000000
H     5.959000000    -1.543000000    -1.184000000
C     4.833000000     0.319000000    -1.233000000
C     4.435000000     1.337000000    -2.111000000
H     4.443000000     1.203000000    -3.189000000
C     4.733000000     0.559000000     0.107000000
C     4.419000000     1.772000000     0.610000000
H     4.469000000     1.945000000     1.682000000
C     3.817000000     2.742000000    -0.272000000
O     3.182000000     3.833000000     0.294000000
C     1.726000000     3.758000000     0.300000000
C     1.181000000     4.116000000     1.735000000
C     1.982000000     4.128000000     2.829000000
H     3.059000000     4.017000000     2.737000000
C    -0.184000000     4.465000000     1.802000000
H    -0.844000000     4.465000000     0.938000000
O     1.370000000     4.627000000    -0.788000000
H     1.374000000     2.736000000     0.096000000
C     3.873000000     2.540000000    -1.670000000
C     3.413000000     3.493000000    -2.688000000
H     3.860000000     3.291000000    -3.664000000
H     3.619000000     4.529000000    -2.410000000
C     1.916000000     3.355000000    -2.854000000
C     1.048000000     4.072000000    -2.028000000
C    -0.261000000     4.034000000    -2.340000000
H    -1.011000000     4.625000000    -1.819000000
C    -0.786000000     3.268000000    -3.482000000
O    -2.182000000     3.129000000    -3.552000000
C    -2.732000000     1.863000000    -3.094000000
H    -1.957000000     1.436000000    -2.441000000
C    -4.044000000     1.927000000    -2.154000000
C    -4.712000000     0.768000000    -1.758000000
H    -4.330000000    -0.178000000    -2.135000000
C    -4.311000000     3.044000000    -1.456000000
H    -3.831000000     4.006000000    -1.621000000
C    -5.223000000     3.068000000    -0.390000000
O    -5.510000000     4.312000000     0.250000000
C    -5.954000000     1.923000000    -0.093000000
H    -6.794000000     1.919000000     0.597000000
C    -5.691000000     0.773000000    -0.823000000
O    -6.526000000    -0.264000000    -0.457000000
C    -6.510000000    -1.484000000    -1.097000000
C    -5.902000000    -2.580000000    -0.494000000
H    -5.313000000    -2.516000000     0.417000000
C    -7.286000000    -1.604000000    -2.274000000
H    -7.775000000    -0.767000000    -2.767000000
C    -7.457000000    -2.886000000    -2.754000000
H    -8.099000000    -2.962000000    -3.628000000
C    -6.839000000    -3.972000000    -2.226000000
H    -6.941000000    -4.919000000    -2.751000000
C    -6.041000000    -3.810000000    -1.127000000
O    -5.346000000    -4.856000000    -0.567000000
C    -3.942000000    -4.904000000    -0.352000000
C    -3.376000000    -5.798000000     0.526000000
H    -4.078000000    -6.427000000     1.067000000
C    -1.964000000    -5.972000000     0.657000000
O    -1.472000000    -6.779000000     1.724000000
C    -0.172000000    -6.617000000     2.109000000
C     0.130000000    -5.581000000     2.938000000
H    -0.616000000    -4.793000000     3.008000000
C     0.771000000    -7.644000000     2.040000000
H     0.547000000    -8.473000000     1.374000000
C     2.011000000    -7.516000000     2.741000000
H     2.683000000    -8.367000000     2.661000000
C     2.280000000    -6.351000000     3.517000000
H     3.293000000    -6.370000000     3.911000000
C     1.311000000    -5.341000000     3.587000000
O     1.461000000    -4.248000000     4.410000000
C     2.292000000    -3.163000000     4.112000000
C     2.652000000    -2.268000000     5.137000000
H     2.549000000    -2.581000000     6.173000000
C     3.323000000    -1.100000000     4.888000000
O     3.621000000    -0.292000000     6.012000000
C     3.830000000     1.053000000     5.903000000
C     2.844000000     1.951000000     5.587000000
H     1.868000000     1.629000000     5.233000000
C     5.092000000     1.584000000     6.175000000
H     5.861000000     0.851000000     6.406000000
C     5.304000000     2.945000000     6.421000000
H     6.277000000     3.357000000     6.672000000
C     4.291000000     3.877000000     6.109000000
H     4.542000000     4.933000000     6.178000000
C     3.064000000     3.362000000     5.646000000
O     2.111000000     4.261000000     5.323000000
C     1.435000000     4.337000000     4.124000000
C     0.077000000     4.667000000     4.274000000
H    -0.321000000     5.074000000     5.201000000
C    -0.712000000     4.686000000     3.081000000
O    -1.971000000     5.259000000     3.305000000
C    -2.816000000     5.633000000     2.307000000
C    -2.572000000     6.824000000     1.705000000
H    -1.782000000     7.490000000     2.042000000
C    -3.369000000     7.216000000     0.642000000
H    -3.231000000     8.175000000     0.148000000
C    -4.373000000     6.380000000     0.155000000
H    -4.851000000     6.693000000    -0.769000000
C    -4.560000000     5.155000000     0.810000000
C    -3.870000000     4.836000000     1.937000000
H    -4.002000000     3.891000000     2.459000000
C    -1.200000000    -1.841000000     1.149000000
H    -0.798000000    -2.784000000     1.508000000
C    -0.379000000    -0.956000000     0.464000000
H     0.602000000    -1.325000000     0.176000000
C    -0.930000000     0.214000000    -0.066000000
H    -0.361000000     0.951000000    -0.690000000
C    -2.171000000     0.582000000     0.317000000
H    -2.468000000     1.564000000    -0.042000000
C    -2.919000000    -0.210000000     1.195000000
H    -3.795000000     0.248000000     1.648000000
C    -2.460000000    -1.497000000     1.582000000
C    -3.275000000    -2.390000000     2.499000000
O    -4.469000000    -2.236000000     2.785000000
O    -2.626000000    -3.217000000     3.143000000
O    -8.289000000    -5.463000000     0.818000000
H    -7.553000000    -5.044000000     1.263000000
H    -9.007000000    -5.422000000     1.449000000
O    -6.643000000    -4.136000000     2.435000000
H    -5.820000000    -3.653000000     2.512000000
H    -6.463000000    -4.981000000     2.847000000
O    -4.619000000    -2.007000000     5.710000000
H    -4.579000000    -1.903000000     4.760000000
H    -4.158000000    -2.828000000     5.881000000
O    -7.436000000    -0.704000000     5.760000000
H    -7.432000000    -1.096000000     6.633000000
H    -6.517000000    -0.711000000     5.490000000
O    -5.173000000    -0.588000000     7.875000000
H    -4.964000000    -1.188000000     7.160000000
H    -5.311000000    -1.157000000     8.633000000
O    -6.105000000     2.001000000     3.466000000
H    -5.173000000     1.943000000     3.674000000
H    -6.334000000     1.130000000     3.144000000
O    -6.544000000    -0.463000000     2.342000000
H    -5.834000000    -1.064000000     2.566000000
H    -7.212000000    -1.020000000     1.941000000
O    -8.459000000    -2.263000000     1.752000000
H    -8.857000000    -2.354000000     0.886000000
H    -7.725000000    -2.878000000     1.743000000
O    -1.064000000    -2.657000000     4.949000000
H    -1.590000000    -2.824000000     4.167000000
H    -0.234000000    -3.102000000     4.779000000
O    -5.421000000    -6.294000000     4.027000000
H    -4.715000000    -5.904000000     4.542000000
H    -5.005000000    -7.020000000     3.562000000
O    -3.540000000     1.348000000     4.043000000
H    -2.890000000     0.929000000     3.479000000
H    -3.241000000     1.160000000     4.933000000
O    -9.006000000     0.229000000     3.284000000
H    -9.075000000    -0.052000000     4.196000000
H    -8.105000000     0.022000000     3.037000000
O    -3.331000000    -4.793000000     5.248000000
H    -3.211000000    -4.234000000     4.480000000
H    -2.442000000    -5.009000000     5.529000000
O    -0.340000000    -5.773000000     6.570000000
H     0.226000000    -5.949000000     5.818000000
H     0.128000000    -6.149000000     7.315000000
O    -3.490000000    -8.454000000     3.943000000
H    -2.670000000    -8.160000000     3.548000000
H    -3.242000000    -9.208000000     4.478000000
O    -6.088000000    -4.426000000     6.733000000
H    -5.248000000    -4.722000000     6.381000000
H    -6.677000000    -4.424000000     5.978000000
O    -1.478000000     0.863000000     6.486000000
H    -1.469000000    -0.093000000     6.439000000
H    -0.798000000     1.078000000     7.125000000
O    -1.212000000    -3.526000000     7.543000000
H    -0.978000000    -4.449000000     7.441000000
H    -1.092000000    -3.151000000     6.671000000
O    -8.987000000    -2.888000000     4.562000000
H    -8.569000000    -2.116000000     4.943000000
H    -8.913000000    -2.759000000     3.617000000
