215
-1447.33524
C    -1.106000000    -4.869000000     0.530000000
H    -0.147000000    -4.956000000     1.035000000
C    -1.391000000    -4.536000000    -0.796000000
C    -2.692000000    -4.523000000    -1.230000000
H    -2.917000000    -4.186000000    -2.239000000
C    -0.224000000    -3.912000000    -1.659000000
O     1.105000000    -4.544000000    -1.441000000
H    -0.092000000    -2.909000000    -1.227000000
O    -0.499000000    -3.977000000    -3.052000000
C    -0.216000000    -2.805000000    -3.719000000
C    -1.270000000    -1.988000000    -3.886000000
H    -2.198000000    -2.243000000    -3.382000000
C    -1.055000000    -0.726000000    -4.359000000
O    -2.148000000     0.094000000    -4.276000000
C     0.181000000    -0.321000000    -4.797000000
C     0.342000000     1.062000000    -5.381000000
H     1.169000000     0.897000000    -6.074000000
C     0.617000000     2.080000000    -4.277000000
C     1.905000000     2.361000000    -3.793000000
H     2.705000000     1.694000000    -4.104000000
H    -0.495000000     1.322000000    -6.033000000
C     1.240000000    -1.173000000    -4.703000000
H     2.233000000    -0.921000000    -5.067000000
C     1.061000000    -2.430000000    -4.105000000
C     2.298000000    -3.333000000    -3.839000000
H     3.067000000    -2.957000000    -4.517000000
H     2.103000000    -4.396000000    -3.990000000
C     2.802000000    -3.160000000    -2.432000000
C     3.792000000    -2.182000000    -2.218000000
H     4.192000000    -1.681000000    -3.096000000
C     2.203000000    -3.705000000    -1.334000000
C     2.731000000    -3.504000000    -0.026000000
H     2.223000000    -3.979000000     0.809000000
C     3.746000000    -2.567000000     0.174000000
O     4.154000000    -2.438000000     1.451000000
C     3.768000000    -1.231000000     2.134000000
C     3.413000000    -1.403000000     3.565000000
C     3.793000000    -0.398000000     4.429000000
H     4.455000000     0.432000000     4.195000000
C     2.555000000    -2.396000000     3.922000000
H     2.172000000    -3.093000000     3.181000000
O     4.819000000    -0.211000000     1.982000000
H     2.850000000    -0.835000000     1.676000000
C     4.310000000    -1.941000000    -0.931000000
C     5.506000000    -0.970000000    -0.714000000
H     6.090000000    -0.792000000    -1.620000000
H     6.176000000    -1.441000000     0.008000000
C     4.894000000     0.354000000    -0.345000000
C     4.486000000     1.225000000    -1.398000000
H     4.710000000     1.049000000    -2.447000000
C     4.593000000     0.701000000     0.975000000
C     3.957000000     1.858000000     1.284000000
H     3.595000000     2.130000000     2.272000000
C     3.552000000     2.717000000     0.212000000
O     2.826000000     3.846000000     0.606000000
C     1.434000000     3.857000000     0.223000000
C     0.556000000     4.186000000     1.370000000
C     0.953000000     3.839000000     2.694000000
H     1.867000000     3.288000000     2.902000000
C    -0.683000000     4.836000000     1.175000000
H    -0.963000000     5.180000000     0.182000000
O     1.189000000     4.662000000    -0.901000000
H     1.262000000     2.808000000    -0.061000000
C     3.844000000     2.390000000    -1.102000000
C     3.499000000     3.381000000    -2.213000000
H     4.191000000     3.382000000    -3.058000000
H     3.791000000     4.377000000    -1.872000000
C     2.121000000     3.252000000    -2.681000000
C     1.097000000     3.913000000    -2.115000000
C    -0.201000000     3.642000000    -2.517000000
H    -1.062000000     4.008000000    -1.964000000
C    -0.419000000     2.819000000    -3.644000000
O    -1.677000000     2.394000000    -3.944000000
C    -2.229000000     1.184000000    -3.306000000
H    -1.591000000     1.021000000    -2.426000000
C    -3.590000000     1.359000000    -2.849000000
C    -4.501000000     0.286000000    -2.967000000
H    -4.170000000    -0.671000000    -3.363000000
C    -4.032000000     2.611000000    -2.376000000
H    -3.366000000     3.460000000    -2.242000000
C    -5.369000000     2.719000000    -1.908000000
O    -5.651000000     3.802000000    -1.108000000
C    -6.216000000     1.638000000    -2.113000000
H    -7.247000000     1.878000000    -1.868000000
C    -5.816000000     0.420000000    -2.633000000
O    -6.704000000    -0.559000000    -2.855000000
C    -6.169000000    -1.912000000    -2.966000000
C    -5.786000000    -2.670000000    -1.790000000
H    -5.911000000    -2.260000000    -0.791000000
C    -6.200000000    -2.494000000    -4.278000000
H    -6.589000000    -1.881000000    -5.086000000
C    -5.916000000    -3.839000000    -4.350000000
H    -5.940000000    -4.415000000    -5.272000000
C    -5.574000000    -4.622000000    -3.228000000
H    -5.378000000    -5.688000000    -3.312000000
C    -5.444000000    -4.005000000    -1.966000000
O    -5.090000000    -4.704000000    -0.788000000
C    -3.767000000    -4.875000000    -0.404000000
C    -3.454000000    -5.311000000     0.884000000
H    -4.249000000    -5.445000000     1.613000000
C    -2.170000000    -5.222000000     1.390000000
O    -1.920000000    -5.553000000     2.680000000
C    -0.717000000    -5.593000000     3.334000000
C    -0.413000000    -4.597000000     4.277000000
H    -1.099000000    -3.793000000     4.530000000
C     0.191000000    -6.629000000     3.129000000
H    -0.128000000    -7.499000000     2.563000000
C     1.432000000    -6.565000000     3.689000000
H     2.205000000    -7.295000000     3.459000000
C     1.757000000    -5.582000000     4.604000000
H     2.796000000    -5.468000000     4.905000000
C     0.903000000    -4.517000000     4.846000000
O     1.239000000    -3.481000000     5.646000000
C     2.106000000    -2.437000000     5.273000000
C     2.428000000    -1.462000000     6.179000000
H     2.037000000    -1.491000000     7.193000000
C     3.293000000    -0.481000000     5.771000000
O     3.464000000     0.549000000     6.660000000
C     3.172000000     1.862000000     6.336000000
C     1.888000000     2.123000000     5.812000000
H     1.129000000     1.347000000     5.745000000
C     4.086000000     2.844000000     6.620000000
H     5.129000000     2.587000000     6.784000000
C     3.810000000     4.161000000     6.346000000
H     4.616000000     4.887000000     6.417000000
C     2.559000000     4.504000000     5.832000000
H     2.278000000     5.508000000     5.526000000
C     1.643000000     3.463000000     5.549000000
O     0.437000000     3.846000000     5.097000000
C     0.046000000     4.022000000     3.767000000
C    -1.094000000     4.769000000     3.522000000
H    -1.612000000     5.097000000     4.419000000
C    -1.533000000     5.050000000     2.221000000
O    -2.718000000     5.627000000     1.996000000
C    -3.299000000     5.800000000     0.709000000
C    -2.912000000     6.791000000    -0.212000000
H    -2.054000000     7.411000000     0.034000000
C    -3.622000000     6.879000000    -1.397000000
H    -3.463000000     7.745000000    -2.034000000
C    -4.447000000     5.863000000    -1.774000000
H    -4.940000000     5.796000000    -2.741000000
C    -4.805000000     4.868000000    -0.792000000
C    -4.179000000     4.832000000     0.370000000
H    -4.275000000     3.971000000     1.027000000
C    -1.909000000    -1.729000000     1.789000000
H    -2.172000000    -2.548000000     2.454000000
C    -0.563000000    -1.407000000     1.718000000
H     0.065000000    -2.167000000     2.176000000
C    -0.140000000    -0.278000000     1.056000000
H     0.914000000    -0.108000000     1.018000000
C    -1.036000000     0.581000000     0.498000000
H    -0.653000000     1.462000000    -0.011000000
C    -2.353000000     0.212000000     0.427000000
H    -3.085000000     0.838000000    -0.078000000
C    -2.853000000    -0.899000000     1.159000000
C    -4.339000000    -1.095000000     1.373000000
O    -5.159000000    -0.513000000     0.746000000
O    -4.843000000    -1.806000000     2.215000000
O    -7.842000000    -1.258000000     0.179000000
H    -7.775000000    -1.906000000     0.880000000
H    -6.976000000    -0.853000000     0.144000000
O    -6.466000000     1.783000000     1.408000000
H    -5.851000000     1.169000000     1.007000000
H    -7.270000000     1.684000000     0.897000000
O    -5.893000000     0.075000000     3.961000000
H    -5.602000000    -0.483000000     3.239000000
H    -6.308000000     0.824000000     3.534000000
O    -6.236000000    -5.469000000     3.285000000
H    -5.904000000    -4.849000000     3.933000000
H    -6.037000000    -6.330000000     3.653000000
O    -9.020000000     0.867000000     1.387000000
H    -9.284000000     0.780000000     2.303000000
H    -8.803000000    -0.024000000     1.114000000
O    -5.049000000    -0.486000000     6.583000000
H    -5.149000000     0.391000000     6.955000000
H    -5.447000000    -0.424000000     5.715000000
O    -4.790000000     4.694000000     3.975000000
H    -4.243000000     4.638000000     4.759000000
H    -4.540000000     3.932000000     3.454000000
O    -7.128000000    -3.146000000     2.101000000
H    -6.440000000    -2.492000000     2.226000000
H    -6.792000000    -3.932000000     2.532000000
O    -7.819000000     3.865000000     3.182000000
H    -7.318000000     3.077000000     2.972000000
H    -7.238000000     4.375000000     3.746000000
O    -9.412000000    -2.245000000     3.339000000
H    -8.819000000    -2.509000000     2.636000000
H    -9.225000000    -2.855000000     4.052000000
O    -4.779000000    -3.446000000     4.365000000
H    -4.889000000    -3.096000000     3.481000000
H    -3.945000000    -3.084000000     4.664000000
O    -3.603000000     2.369000000     3.069000000
H    -3.698000000     1.519000000     3.498000000
H    -2.709000000     2.643000000     3.273000000
O    -1.812000000     0.288000000     3.996000000
H    -2.122000000    -0.517000000     4.410000000
H    -1.512000000     0.011000000     3.130000000
O    -9.381000000    -0.959000000    -1.846000000
H    -8.909000000    -1.114000000    -2.664000000
H    -8.719000000    -1.065000000    -1.163000000
O    -2.679000000    -1.581000000     5.462000000
H    -3.536000000    -1.457000000     5.870000000
H    -2.089000000    -1.758000000     6.195000000
O    -8.742000000    -4.891000000    -0.063000000
H    -9.508000000    -4.445000000    -0.426000000
H    -8.811000000    -4.755000000     0.882000000
O    -2.580000000     1.842000000     6.267000000
H    -3.098000000     1.115000000     6.614000000
H    -2.217000000     1.507000000     5.447000000
O    -6.825000000    -3.642000000     6.127000000
H    -6.135000000    -3.568000000     5.467000000
H    -6.542000000    -4.362000000     6.690000000
O    -6.798000000    -6.959000000     0.565000000
H    -6.526000000    -6.334000000     1.238000000
H    -7.578000000    -6.566000000     0.175000000
