215
-1478.67247
C    -0.659000000    -4.708000000     0.291000000
H     0.422000000    -4.771000000     0.390000000
C    -1.191000000    -4.104000000    -0.861000000
C    -2.607000000    -4.024000000    -0.949000000
H    -3.084000000    -3.510000000    -1.780000000
C    -0.251000000    -3.524000000    -1.855000000
O     1.007000000    -4.273000000    -1.912000000
H    -0.085000000    -2.463000000    -1.616000000
O    -0.807000000    -3.538000000    -3.200000000
C    -0.737000000    -2.357000000    -3.936000000
C    -1.860000000    -1.517000000    -3.953000000
H    -2.772000000    -1.901000000    -3.504000000
C    -1.747000000    -0.146000000    -4.308000000
O    -2.871000000     0.641000000    -4.185000000
C    -0.516000000     0.291000000    -4.754000000
C    -0.357000000     1.678000000    -5.230000000
H     0.301000000     1.689000000    -6.101000000
C     0.011000000     2.587000000    -4.109000000
C     1.366000000     2.913000000    -3.768000000
H     2.227000000     2.536000000    -4.312000000
H    -1.296000000     2.007000000    -5.679000000
C     0.641000000    -0.554000000    -4.733000000
H     1.599000000    -0.222000000    -5.125000000
C     0.472000000    -1.881000000    -4.402000000
C     1.691000000    -2.822000000    -4.451000000
H     2.289000000    -2.616000000    -5.341000000
H     1.324000000    -3.840000000    -4.598000000
C     2.499000000    -2.739000000    -3.169000000
C     3.529000000    -1.784000000    -3.114000000
H     3.802000000    -1.209000000    -3.995000000
C     2.131000000    -3.509000000    -2.053000000
C     2.895000000    -3.414000000    -0.871000000
H     2.647000000    -4.012000000     0.003000000
C     3.874000000    -2.417000000    -0.826000000
O     4.577000000    -2.332000000     0.409000000
C     4.159000000    -1.292000000     1.277000000
C     4.061000000    -1.674000000     2.768000000
C     3.800000000    -0.747000000     3.773000000
H     3.702000000     0.305000000     3.516000000
C     4.005000000    -3.043000000     3.065000000
H     4.252000000    -3.782000000     2.307000000
O     5.016000000    -0.128000000     1.133000000
H     3.195000000    -0.914000000     0.907000000
C     4.195000000    -1.598000000    -1.927000000
C     5.299000000    -0.547000000    -1.788000000
H     5.644000000    -0.428000000    -2.817000000
H     6.122000000    -1.001000000    -1.232000000
C     4.718000000     0.682000000    -1.180000000
C     4.155000000     1.713000000    -1.938000000
H     4.252000000     1.615000000    -3.016000000
C     4.582000000     0.837000000     0.239000000
C     3.947000000     1.979000000     0.743000000
H     4.012000000     1.863000000     1.822000000
C     3.532000000     3.067000000    -0.018000000
O     2.785000000     4.106000000     0.504000000
C     1.405000000     4.000000000     0.345000000
C     0.643000000     4.330000000     1.631000000
C     1.298000000     4.150000000     2.898000000
H     2.292000000     3.715000000     2.960000000
C    -0.668000000     4.806000000     1.605000000
H    -1.112000000     5.074000000     0.650000000
O     0.958000000     4.848000000    -0.717000000
H     1.234000000     2.930000000     0.159000000
C     3.688000000     2.901000000    -1.373000000
C     3.155000000     3.921000000    -2.305000000
H     3.761000000     3.930000000    -3.213000000
H     3.240000000     4.945000000    -1.936000000
C     1.690000000     3.669000000    -2.664000000
C     0.688000000     4.214000000    -1.953000000
C    -0.666000000     3.938000000    -2.259000000
H    -1.509000000     4.334000000    -1.698000000
C    -1.007000000     3.145000000    -3.334000000
O    -2.356000000     2.876000000    -3.468000000
C    -2.804000000     1.562000000    -3.037000000
H    -2.152000000     1.107000000    -2.276000000
C    -4.146000000     1.541000000    -2.292000000
C    -4.981000000     0.418000000    -2.378000000
H    -4.711000000    -0.427000000    -3.006000000
C    -4.514000000     2.625000000    -1.488000000
H    -3.824000000     3.455000000    -1.358000000
C    -5.741000000     2.560000000    -0.790000000
O    -6.061000000     3.514000000     0.107000000
C    -6.603000000     1.507000000    -0.935000000
H    -7.541000000     1.442000000    -0.390000000
C    -6.187000000     0.385000000    -1.640000000
O    -7.081000000    -0.673000000    -1.777000000
C    -6.762000000    -1.982000000    -1.776000000
C    -6.159000000    -2.620000000    -0.654000000
H    -6.114000000    -2.208000000     0.351000000
C    -6.793000000    -2.620000000    -3.061000000
H    -7.133000000    -2.146000000    -3.979000000
C    -6.288000000    -3.919000000    -3.194000000
H    -6.505000000    -4.524000000    -4.070000000
C    -5.710000000    -4.544000000    -2.119000000
H    -5.235000000    -5.515000000    -2.234000000
C    -5.565000000    -3.850000000    -0.928000000
O    -4.789000000    -4.345000000     0.067000000
C    -3.408000000    -4.485000000     0.083000000
C    -2.870000000    -5.079000000     1.227000000
H    -3.547000000    -5.626000000     1.877000000
C    -1.493000000    -5.181000000     1.288000000
O    -0.915000000    -5.836000000     2.350000000
C     0.440000000    -6.121000000     2.584000000
C     1.193000000    -5.295000000     3.334000000
H     0.794000000    -4.372000000     3.748000000
C     0.973000000    -7.329000000     2.105000000
H     0.343000000    -7.942000000     1.466000000
C     2.270000000    -7.686000000     2.384000000
H     2.650000000    -8.635000000     2.015000000
C     3.034000000    -6.837000000     3.165000000
H     4.008000000    -7.188000000     3.496000000
C     2.486000000    -5.622000000     3.646000000
O     3.250000000    -4.755000000     4.538000000
C     3.476000000    -3.426000000     4.256000000
C     3.184000000    -2.477000000     5.226000000
H     2.847000000    -2.771000000     6.216000000
C     3.338000000    -1.113000000     5.011000000
O     2.971000000    -0.215000000     6.032000000
C     3.172000000     1.141000000     5.941000000
C     2.202000000     2.008000000     5.408000000
H     1.264000000     1.618000000     5.021000000
C     4.463000000     1.623000000     6.317000000
H     5.237000000     0.959000000     6.694000000
C     4.603000000     3.033000000     6.386000000
H     5.567000000     3.422000000     6.704000000
C     3.510000000     3.885000000     6.016000000
H     3.634000000     4.954000000     6.168000000
C     2.354000000     3.424000000     5.450000000
O     1.304000000     4.315000000     5.298000000
C     0.640000000     4.493000000     4.070000000
C    -0.654000000     4.974000000     4.023000000
H    -1.085000000     5.344000000     4.950000000
C    -1.341000000     5.028000000     2.809000000
O    -2.593000000     5.538000000     2.798000000
C    -3.423000000     5.499000000     1.696000000
C    -3.594000000     6.746000000     1.088000000
H    -3.018000000     7.606000000     1.422000000
C    -4.606000000     6.872000000     0.179000000
H    -4.811000000     7.827000000    -0.297000000
C    -5.438000000     5.826000000    -0.127000000
H    -6.294000000     5.853000000    -0.796000000
C    -5.256000000     4.548000000     0.486000000
C    -4.160000000     4.342000000     1.347000000
H    -3.996000000     3.410000000     1.882000000
C    -0.798000000    -1.326000000     1.993000000
H    -0.804000000    -2.021000000     2.829000000
C     0.228000000    -1.314000000     1.065000000
H     1.130000000    -1.893000000     1.245000000
C     0.190000000    -0.365000000     0.006000000
H     0.934000000    -0.290000000    -0.761000000
C    -0.832000000     0.555000000    -0.064000000
H    -0.830000000     1.382000000    -0.770000000
C    -1.873000000     0.582000000     0.911000000
H    -2.691000000     1.270000000     0.711000000
C    -1.895000000    -0.381000000     1.989000000
C    -2.984000000    -0.537000000     2.978000000
O    -3.644000000     0.407000000     3.374000000
O    -3.288000000    -1.637000000     3.469000000
O    -7.377000000    -4.558000000     1.786000000
H    -6.859000000    -5.332000000     2.006000000
H    -6.970000000    -3.848000000     2.282000000
O    -2.788000000    -0.169000000     6.158000000
H    -2.559000000    -1.094000000     6.245000000
H    -3.285000000    -0.121000000     5.342000000
O    -2.529000000    -3.952000000     8.129000000
H    -2.266000000    -3.721000000     7.239000000
H    -2.185000000    -3.244000000     8.673000000
O    -6.637000000    -2.206000000     7.442000000
H    -6.278000000    -1.797000000     6.654000000
H    -5.879000000    -2.602000000     7.873000000
O    -5.682000000     1.830000000     3.408000000
H    -4.856000000     1.374000000     3.247000000
H    -5.971000000     1.507000000     4.262000000
O    -3.619000000     1.542000000     8.122000000
H    -3.926000000     1.022000000     8.865000000
H    -3.527000000     0.910000000     7.409000000
O    -5.637000000    -1.057000000     4.850000000
H    -4.816000000    -0.625000000     4.615000000
H    -5.674000000    -1.828000000     4.284000000
O    -6.704000000     4.482000000     3.621000000
H    -6.376000000     3.611000000     3.399000000
H    -5.927000000     4.966000000     3.903000000
O    -4.273000000    -4.954000000     4.903000000
H    -4.806000000    -5.151000000     5.673000000
H    -3.397000000    -4.794000000     5.253000000
O    -4.475000000     4.898000000     5.321000000
H    -4.503000000     4.877000000     6.278000000
H    -3.743000000     4.326000000     5.090000000
O    -6.878000000     2.724000000     7.626000000
H    -6.536000000     2.213000000     6.893000000
H    -7.433000000     2.110000000     8.108000000
O    -5.517000000    -3.153000000     3.243000000
H    -4.720000000    -2.749000000     2.897000000
H    -5.212000000    -3.951000000     3.675000000
O    -2.830000000     2.582000000     4.987000000
H    -2.975000000     2.223000000     4.112000000
H    -2.248000000     1.952000000     5.411000000
O    -9.447000000    -1.421000000     3.974000000
H    -8.957000000    -2.155000000     3.605000000
H    -9.168000000    -0.664000000     3.459000000
O    -2.322000000    -3.008000000     5.577000000
H    -2.914000000    -2.741000000     4.874000000
H    -1.855000000    -3.765000000     5.222000000
O    -1.483000000    -5.665000000     5.266000000
H    -1.708000000    -5.582000000     4.339000000
H    -1.612000000    -6.593000000     5.462000000
O    -0.832000000     2.304000000     7.634000000
H    -0.524000000     1.408000000     7.497000000
H    -1.784000000     2.226000000     7.681000000
O    -8.481000000     1.250000000     1.902000000
H    -7.614000000     1.363000000     2.292000000
H    -8.737000000     2.132000000     1.631000000
O    -7.682000000     0.948000000     5.549000000
H    -7.175000000     0.216000000     5.198000000
H    -8.296000000     0.542000000     6.161000000
