215
-1474.80254
C    -0.781000000    -4.929000000     0.203000000
H     0.293000000    -5.003000000     0.352000000
C    -1.274000000    -4.303000000    -0.961000000
C    -2.654000000    -4.330000000    -1.218000000
H    -3.125000000    -3.891000000    -2.094000000
C    -0.337000000    -3.662000000    -1.891000000
O     0.886000000    -4.283000000    -1.963000000
H    -0.237000000    -2.669000000    -1.430000000
O    -0.931000000    -3.591000000    -3.209000000
C    -0.815000000    -2.379000000    -3.836000000
C    -1.844000000    -1.492000000    -3.783000000
H    -2.786000000    -1.798000000    -3.336000000
C    -1.718000000    -0.200000000    -4.214000000
O    -2.724000000     0.688000000    -4.050000000
C    -0.472000000     0.167000000    -4.752000000
C    -0.240000000     1.548000000    -5.342000000
H     0.573000000     1.431000000    -6.062000000
C     0.165000000     2.536000000    -4.320000000
C     1.517000000     2.691000000    -4.019000000
H     2.261000000     2.087000000    -4.531000000
H    -1.134000000     1.874000000    -5.879000000
C     0.596000000    -0.779000000    -4.922000000
H     1.561000000    -0.458000000    -5.304000000
C     0.380000000    -2.062000000    -4.512000000
C     1.607000000    -3.028000000    -4.540000000
H     2.267000000    -2.791000000    -5.376000000
H     1.276000000    -4.059000000    -4.685000000
C     2.424000000    -2.910000000    -3.278000000
C     3.584000000    -2.139000000    -3.266000000
H     3.918000000    -1.537000000    -4.107000000
C     2.045000000    -3.545000000    -2.140000000
C     2.827000000    -3.536000000    -1.041000000
H     2.417000000    -3.973000000    -0.134000000
C     3.925000000    -2.748000000    -0.931000000
O     4.461000000    -2.592000000     0.328000000
C     4.040000000    -1.492000000     1.077000000
C     4.057000000    -1.903000000     2.522000000
C     4.276000000    -0.948000000     3.521000000
H     4.587000000     0.056000000     3.247000000
C     3.611000000    -3.139000000     2.957000000
H     3.472000000    -3.893000000     2.186000000
O     4.999000000    -0.436000000     0.897000000
H     3.047000000    -1.131000000     0.769000000
C     4.365000000    -2.023000000    -2.094000000
C     5.438000000    -0.945000000    -2.004000000
H     5.803000000    -0.679000000    -2.998000000
H     6.236000000    -1.310000000    -1.352000000
C     4.850000000     0.327000000    -1.378000000
C     4.423000000     1.352000000    -2.282000000
H     4.494000000     1.278000000    -3.364000000
C     4.673000000     0.490000000    -0.037000000
C     4.219000000     1.664000000     0.545000000
H     4.058000000     1.667000000     1.620000000
C     3.652000000     2.562000000    -0.291000000
O     2.959000000     3.570000000     0.316000000
C     1.516000000     3.706000000    -0.024000000
C     0.666000000     3.944000000     1.147000000
C     0.752000000     2.941000000     2.133000000
H     1.452000000     2.122000000     1.987000000
C    -0.244000000     5.017000000     1.382000000
H    -0.302000000     5.890000000     0.737000000
O     1.329000000     4.705000000    -1.043000000
H     1.168000000     2.760000000    -0.464000000
C     3.794000000     2.465000000    -1.681000000
C     3.408000000     3.559000000    -2.625000000
H     4.035000000     3.503000000    -3.518000000
H     3.658000000     4.481000000    -2.097000000
C     1.934000000     3.580000000    -2.980000000
C     0.986000000     4.242000000    -2.234000000
C    -0.341000000     4.009000000    -2.432000000
H    -1.018000000     4.497000000    -1.736000000
C    -0.781000000     3.205000000    -3.501000000
O    -2.136000000     2.938000000    -3.548000000
C    -2.651000000     1.694000000    -3.071000000
H    -1.903000000     1.185000000    -2.445000000
C    -3.905000000     1.936000000    -2.205000000
C    -4.670000000     0.897000000    -1.704000000
H    -4.497000000    -0.133000000    -2.003000000
C    -4.005000000     3.176000000    -1.504000000
H    -3.370000000     4.022000000    -1.753000000
C    -5.040000000     3.374000000    -0.594000000
O    -5.489000000     4.657000000    -0.166000000
C    -5.764000000     2.319000000    -0.141000000
H    -6.553000000     2.481000000     0.589000000
C    -5.555000000     1.051000000    -0.635000000
O    -6.110000000    -0.050000000     0.015000000
C    -6.246000000    -1.348000000    -0.546000000
C    -5.503000000    -2.430000000    -0.127000000
H    -4.906000000    -2.272000000     0.768000000
C    -7.043000000    -1.586000000    -1.693000000
H    -7.773000000    -0.818000000    -1.937000000
C    -7.122000000    -2.802000000    -2.359000000
H    -7.820000000    -2.996000000    -3.169000000
C    -6.324000000    -3.858000000    -1.936000000
H    -6.267000000    -4.864000000    -2.346000000
C    -5.541000000    -3.630000000    -0.814000000
O    -4.894000000    -4.689000000    -0.356000000
C    -3.542000000    -4.756000000    -0.191000000
C    -3.079000000    -5.391000000     0.950000000
H    -3.780000000    -5.841000000     1.648000000
C    -1.702000000    -5.437000000     1.113000000
O    -1.264000000    -6.010000000     2.272000000
C     0.062000000    -6.133000000     2.556000000
C     0.807000000    -5.164000000     3.237000000
H     0.332000000    -4.315000000     3.722000000
C     0.713000000    -7.309000000     2.072000000
H     0.206000000    -7.985000000     1.387000000
C     2.057000000    -7.498000000     2.407000000
H     2.495000000    -8.441000000     2.091000000
C     2.712000000    -6.609000000     3.300000000
H     3.705000000    -6.893000000     3.638000000
C     2.121000000    -5.395000000     3.657000000
O     2.697000000    -4.611000000     4.606000000
C     3.420000000    -3.458000000     4.251000000
C     3.679000000    -2.525000000     5.263000000
H     3.418000000    -2.668000000     6.309000000
C     4.088000000    -1.250000000     4.843000000
O     4.133000000    -0.260000000     5.843000000
C     3.336000000     0.811000000     5.816000000
C     2.168000000     0.858000000     5.053000000
H     1.781000000     0.034000000     4.459000000
C     3.675000000     1.918000000     6.645000000
H     4.561000000     1.830000000     7.268000000
C     3.003000000     3.134000000     6.609000000
H     3.283000000     3.965000000     7.252000000
C     1.951000000     3.253000000     5.741000000
H     1.293000000     4.118000000     5.709000000
C     1.462000000     2.043000000     5.114000000
O     0.268000000     2.106000000     4.377000000
C     0.099000000     3.056000000     3.370000000
C    -0.736000000     4.125000000     3.586000000
H    -1.374000000     4.117000000     4.466000000
C    -0.986000000     5.024000000     2.578000000
O    -1.976000000     6.044000000     2.789000000
C    -2.965000000     6.301000000     1.912000000
C    -3.364000000     7.687000000     1.830000000
H    -2.877000000     8.398000000     2.492000000
C    -4.416000000     8.015000000     0.998000000
H    -4.726000000     9.057000000     0.994000000
C    -5.138000000     7.027000000     0.314000000
H    -6.027000000     7.362000000    -0.215000000
C    -4.729000000     5.682000000     0.411000000
C    -3.646000000     5.382000000     1.212000000
H    -3.309000000     4.350000000     1.277000000
C    -0.479000000    -1.015000000     1.706000000
H    -0.789000000    -1.424000000     2.665000000
C     0.547000000    -1.465000000     0.877000000
H     1.054000000    -2.371000000     1.198000000
C     0.817000000    -0.812000000    -0.349000000
H     1.631000000    -1.139000000    -0.942000000
C     0.043000000     0.262000000    -0.795000000
H     0.274000000     0.739000000    -1.744000000
C    -1.038000000     0.645000000     0.035000000
H    -1.700000000     1.482000000    -0.169000000
C    -1.226000000     0.091000000     1.277000000
C    -2.304000000     0.678000000     2.212000000
O    -2.667000000     1.849000000     2.081000000
O    -2.644000000     0.093000000     3.190000000
O    -5.216000000     1.477000000     6.240000000
H    -5.794000000     1.057000000     5.603000000
H    -4.352000000     1.107000000     6.058000000
O    -3.199000000    -3.447000000     7.641000000
H    -2.910000000    -3.246000000     6.751000000
H    -3.790000000    -2.730000000     7.869000000
O    -6.434000000    -3.001000000     7.186000000
H    -6.430000000    -2.804000000     6.250000000
H    -6.017000000    -3.860000000     7.251000000
O    -4.893000000     3.030000000     2.548000000
H    -4.141000000     2.522000000     2.244000000
H    -4.547000000     3.565000000     3.262000000
O    -3.656000000     2.602000000     8.733000000
H    -3.450000000     2.076000000     9.506000000
H    -4.102000000     1.995000000     8.142000000
O    -5.691000000     0.441000000     3.273000000
H    -4.913000000    -0.042000000     2.995000000
H    -5.451000000     1.362000000     3.171000000
O    -7.558000000     3.991000000     2.939000000
H    -6.646000000     3.851000000     2.684000000
H    -7.567000000     3.845000000     3.885000000
O    -5.733000000    -2.499000000     4.426000000
H    -5.621000000    -3.448000000     4.362000000
H    -4.856000000    -2.167000000     4.620000000
O    -3.872000000     3.973000000     5.272000000
H    -4.602000000     3.770000000     5.857000000
H    -3.354000000     3.169000000     5.247000000
O    -8.241000000     1.754000000     6.183000000
H    -7.989000000     0.851000000     5.986000000
H    -7.992000000     1.878000000     7.098000000
O    -7.447000000    -2.982000000     2.321000000
H    -6.763000000    -2.778000000     2.959000000
H    -8.252000000    -3.023000000     2.838000000
O    -2.622000000     1.547000000     5.382000000
H    -2.744000000     1.226000000     4.488000000
H    -1.704000000     1.362000000     5.579000000
O    -3.618000000     6.861000000     5.120000000
H    -4.021000000     6.041000000     4.837000000
H    -2.891000000     6.994000000     4.512000000
O    -3.229000000    -1.813000000     4.878000000
H    -3.062000000    -1.065000000     4.304000000
H    -2.469000000    -2.382000000     4.758000000
O    -2.082000000    -4.260000000     4.998000000
H    -2.559000000    -5.076000000     5.151000000
H    -1.180000000    -4.460000000     5.245000000
O    -1.603000000     4.426000000     7.521000000
H    -2.259000000     4.698000000     6.878000000
H    -2.084000000     3.865000000     8.129000000
O    -8.554000000     0.302000000     2.589000000
H    -7.608000000     0.388000000     2.468000000
H    -8.914000000     1.121000000     2.247000000
O    -7.718000000    -0.824000000     5.162000000
H    -6.921000000    -1.293000000     4.914000000
H    -7.990000000    -0.375000000     4.361000000
O    -7.307000000     4.333000000     5.498000000
H    -7.678000000     3.456000000     5.592000000
H    -6.874000000     4.502000000     6.334000000
