215
-1436.39622
C    -0.357000000    -5.491000000     0.274000000
H     0.716000000    -5.658000000     0.230000000
C    -0.878000000    -4.623000000    -0.737000000
C    -2.252000000    -4.294000000    -0.693000000
H    -2.680000000    -3.547000000    -1.357000000
C    -0.075000000    -3.842000000    -1.794000000
O     1.186000000    -4.529000000    -2.027000000
H     0.042000000    -2.874000000    -1.286000000
O    -0.755000000    -3.603000000    -3.008000000
C    -0.598000000    -2.463000000    -3.685000000
C    -1.653000000    -1.564000000    -3.675000000
H    -2.592000000    -1.883000000    -3.229000000
C    -1.437000000    -0.334000000    -4.217000000
O    -2.465000000     0.543000000    -3.934000000
C    -0.216000000     0.028000000    -4.796000000
C    -0.053000000     1.407000000    -5.407000000
H     0.545000000     1.241000000    -6.305000000
C     0.336000000     2.552000000    -4.521000000
C     1.605000000     2.651000000    -4.060000000
H     2.343000000     2.060000000    -4.598000000
H    -1.017000000     1.692000000    -5.835000000
C     0.831000000    -0.861000000    -4.910000000
H     1.788000000    -0.526000000    -5.301000000
C     0.667000000    -2.119000000    -4.291000000
C     1.823000000    -3.071000000    -4.328000000
H     2.358000000    -2.659000000    -5.186000000
H     1.529000000    -4.109000000    -4.501000000
C     2.615000000    -3.016000000    -3.066000000
C     3.621000000    -2.051000000    -2.916000000
H     3.793000000    -1.378000000    -3.753000000
C     2.338000000    -3.835000000    -1.995000000
C     3.025000000    -3.741000000    -0.796000000
H     2.857000000    -4.338000000     0.097000000
C     4.073000000    -2.840000000    -0.729000000
O     4.509000000    -2.662000000     0.526000000
C     3.893000000    -1.584000000     1.293000000
C     3.514000000    -1.936000000     2.694000000
C     3.172000000    -0.961000000     3.587000000
H     3.101000000     0.032000000     3.150000000
C     3.489000000    -3.295000000     3.073000000
H     3.758000000    -4.004000000     2.294000000
O     4.660000000    -0.341000000     1.189000000
H     2.937000000    -1.485000000     0.758000000
C     4.355000000    -1.933000000    -1.748000000
C     5.411000000    -0.881000000    -1.602000000
H     5.922000000    -0.866000000    -2.567000000
H     6.196000000    -1.249000000    -0.938000000
C     4.781000000     0.434000000    -1.102000000
C     4.401000000     1.419000000    -2.046000000
H     4.525000000     1.127000000    -3.086000000
C     4.380000000     0.632000000     0.258000000
C     3.845000000     1.877000000     0.719000000
H     3.622000000     2.046000000     1.770000000
C     3.491000000     2.860000000    -0.260000000
O     2.923000000     4.030000000     0.161000000
C     1.474000000     4.160000000    -0.173000000
C     0.576000000     4.523000000     0.981000000
C     0.557000000     3.724000000     2.145000000
H     1.195000000     2.846000000     2.195000000
C    -0.300000000     5.624000000     0.866000000
H    -0.354000000     6.242000000    -0.027000000
O     1.322000000     5.026000000    -1.369000000
H     1.212000000     3.108000000    -0.359000000
C     3.748000000     2.596000000    -1.650000000
C     3.491000000     3.574000000    -2.766000000
H     4.061000000     3.328000000    -3.664000000
H     3.807000000     4.564000000    -2.430000000
C     1.979000000     3.491000000    -3.081000000
C     1.024000000     4.266000000    -2.486000000
C    -0.257000000     4.159000000    -2.886000000
H    -1.031000000     4.733000000    -2.383000000
C    -0.640000000     3.207000000    -3.812000000
O    -1.933000000     2.789000000    -3.932000000
C    -2.294000000     1.691000000    -3.091000000
H    -1.505000000     1.594000000    -2.330000000
C    -3.617000000     1.935000000    -2.368000000
C    -3.910000000     0.897000000    -1.486000000
H    -3.332000000    -0.014000000    -1.617000000
C    -4.211000000     3.184000000    -2.323000000
H    -3.811000000     4.007000000    -2.910000000
C    -5.132000000     3.470000000    -1.287000000
O    -5.638000000     4.665000000    -1.043000000
C    -5.507000000     2.402000000    -0.459000000
H    -6.280000000     2.568000000     0.287000000
C    -4.839000000     1.183000000    -0.528000000
O    -5.180000000     0.202000000     0.380000000
C    -5.465000000    -1.058000000    -0.094000000
C    -4.771000000    -2.155000000     0.394000000
H    -3.961000000    -2.067000000     1.114000000
C    -6.508000000    -1.210000000    -1.033000000
H    -7.122000000    -0.386000000    -1.386000000
C    -6.757000000    -2.487000000    -1.577000000
H    -7.505000000    -2.520000000    -2.365000000
C    -6.080000000    -3.601000000    -1.107000000
H    -6.293000000    -4.577000000    -1.536000000
C    -5.133000000    -3.460000000    -0.080000000
O    -4.496000000    -4.607000000     0.264000000
C    -3.104000000    -4.945000000     0.200000000
C    -2.614000000    -5.811000000     1.156000000
H    -3.199000000    -6.247000000     1.962000000
C    -1.227000000    -6.036000000     1.215000000
O    -0.845000000    -6.804000000     2.311000000
C     0.537000000    -6.844000000     2.621000000
C     1.054000000    -5.789000000     3.364000000
H     0.532000000    -4.836000000     3.359000000
C     1.199000000    -8.071000000     2.448000000
H     0.721000000    -8.857000000     1.869000000
C     2.421000000    -8.223000000     3.144000000
H     2.939000000    -9.178000000     3.143000000
C     2.969000000    -7.164000000     3.913000000
H     3.883000000    -7.375000000     4.462000000
C     2.307000000    -5.919000000     3.877000000
O     2.826000000    -4.898000000     4.717000000
C     2.982000000    -3.617000000     4.327000000
C     2.737000000    -2.638000000     5.274000000
H     2.359000000    -2.961000000     6.241000000
C     2.792000000    -1.348000000     4.907000000
O     2.271000000    -0.311000000     5.788000000
C     2.225000000     1.004000000     5.503000000
C     1.062000000     1.591000000     5.131000000
H     0.086000000     1.196000000     5.401000000
C     3.435000000     1.604000000     5.227000000
H     4.358000000     1.055000000     5.399000000
C     3.495000000     2.863000000     4.663000000
H     4.432000000     3.358000000     4.418000000
C     2.290000000     3.544000000     4.504000000
H     2.267000000     4.563000000     4.125000000
C     1.102000000     2.849000000     4.669000000
O    -0.122000000     3.459000000     4.447000000
C    -0.210000000     4.146000000     3.273000000
C    -1.147000000     5.208000000     3.160000000
H    -1.709000000     5.520000000     4.036000000
C    -1.221000000     5.842000000     1.926000000
O    -2.292000000     6.727000000     1.850000000
C    -3.547000000     6.467000000     1.462000000
C    -4.510000000     7.370000000     2.035000000
H    -4.211000000     8.183000000     2.692000000
C    -5.825000000     7.194000000     1.627000000
H    -6.603000000     7.698000000     2.195000000
C    -6.143000000     6.234000000     0.616000000
H    -7.200000000     6.135000000     0.385000000
C    -5.188000000     5.490000000    -0.026000000
C    -3.874000000     5.651000000     0.378000000
H    -3.079000000     5.119000000    -0.138000000
C    -0.752000000    -1.212000000     2.337000000
H    -0.516000000    -2.002000000     3.045000000
C     0.012000000    -1.067000000     1.185000000
H     0.625000000    -1.923000000     0.912000000
C    -0.122000000     0.046000000     0.376000000
H     0.595000000     0.145000000    -0.466000000
C    -0.956000000     1.060000000     0.727000000
H    -1.180000000     1.796000000    -0.040000000
C    -1.603000000     1.053000000     2.010000000
H    -2.285000000     1.828000000     2.350000000
C    -1.620000000    -0.160000000     2.732000000
C    -2.497000000    -0.319000000     3.946000000
O    -3.441000000     0.392000000     4.113000000
O    -2.412000000    -1.277000000     4.663000000
O     0.236000000     2.488000000     8.371000000
H     0.085000000     1.601000000     8.045000000
H     0.234000000     2.397000000     9.324000000
O    -5.045000000    -5.454000000     6.390000000
H    -5.270000000    -4.918000000     5.630000000
H    -5.837000000    -5.453000000     6.927000000
O    -6.860000000    -4.035000000     2.411000000
H    -5.906000000    -3.978000000     2.348000000
H    -7.033000000    -4.127000000     3.348000000
O    -6.451000000     0.048000000     7.226000000
H    -7.363000000    -0.045000000     6.951000000
H    -6.477000000    -0.046000000     8.179000000
O    -5.309000000     1.846000000     2.867000000
H    -5.342000000     1.315000000     2.072000000
H    -4.561000000     1.502000000     3.354000000
O    -0.595000000    -1.961000000     8.215000000
H    -1.162000000    -1.311000000     7.801000000
H    -0.993000000    -2.115000000     9.072000000
O    -5.448000000    -1.229000000     4.710000000
H    -5.709000000    -1.033000000     5.610000000
H    -4.712000000    -0.641000000     4.541000000
O    -7.943000000     2.461000000     3.464000000
H    -8.466000000     2.515000000     2.663000000
H    -7.049000000     2.313000000     3.156000000
O    -4.298000000    -3.758000000     3.702000000
H    -3.363000000    -3.686000000     3.891000000
H    -4.689000000    -2.996000000     4.130000000
O    -5.225000000     4.085000000     4.367000000
H    -5.313000000     3.558000000     3.572000000
H    -5.257000000     3.449000000     5.081000000
O    -3.516000000     4.700000000     7.105000000
H    -2.926000000     5.286000000     6.631000000
H    -3.828000000     4.086000000     6.441000000
O    -8.079000000    -1.623000000     1.696000000
H    -8.387000000    -1.524000000     2.596000000
H    -7.504000000    -2.388000000     1.722000000
O    -3.426000000    -1.671000000     7.081000000
H    -3.189000000    -1.556000000     6.160000000
H    -3.320000000    -0.801000000     7.466000000
O    -1.050000000    -3.636000000     4.936000000
H    -1.538000000    -2.942000000     4.492000000
H    -0.948000000    -3.320000000     5.834000000
O    -2.706000000     0.637000000     8.527000000
H    -3.429000000     0.787000000     9.137000000
H    -2.829000000     1.295000000     7.843000000
O    -1.728000000    -6.399000000     4.742000000
H    -1.673000000    -5.464000000     4.942000000
H    -1.382000000    -6.474000000     3.853000000
O    -4.189000000     1.906000000     6.291000000
H    -4.836000000     1.328000000     6.696000000
H    -4.008000000     1.504000000     5.441000000
O    -8.420000000    -1.351000000     4.394000000
H    -8.781000000    -1.165000000     5.260000000
H    -7.472000000    -1.286000000     4.510000000
O    -2.930000000    -2.151000000     9.686000000
H    -3.117000000    -2.037000000     8.754000000
H    -3.407000000    -2.944000000     9.931000000
