215
-1438.62426
C    -0.591000000    -5.130000000     0.735000000
H     0.440000000    -5.468000000     0.796000000
C    -1.018000000    -4.350000000    -0.318000000
C    -2.347000000    -3.880000000    -0.332000000
H    -2.644000000    -3.174000000    -1.103000000
C    -0.146000000    -3.798000000    -1.429000000
O     1.096000000    -4.462000000    -1.537000000
H     0.012000000    -2.722000000    -1.261000000
O    -0.817000000    -3.907000000    -2.693000000
C    -0.759000000    -2.848000000    -3.566000000
C    -1.936000000    -2.040000000    -3.677000000
H    -2.761000000    -2.266000000    -3.006000000
C    -1.859000000    -0.804000000    -4.315000000
O    -2.958000000     0.026000000    -4.323000000
C    -0.663000000    -0.428000000    -4.946000000
C    -0.508000000     0.929000000    -5.643000000
H     0.266000000     0.820000000    -6.406000000
C    -0.119000000     2.014000000    -4.608000000
C     1.197000000     2.301000000    -4.407000000
H     1.972000000     1.768000000    -4.953000000
H    -1.436000000     1.199000000    -6.152000000
C     0.484000000    -1.239000000    -4.850000000
H     1.420000000    -0.876000000    -5.266000000
C     0.449000000    -2.428000000    -4.159000000
C     1.694000000    -3.312000000    -4.161000000
H     2.118000000    -3.279000000    -5.167000000
H     1.255000000    -4.297000000    -3.986000000
C     2.570000000    -3.007000000    -2.939000000
C     3.569000000    -2.069000000    -2.959000000
H     3.778000000    -1.629000000    -3.931000000
C     2.299000000    -3.771000000    -1.798000000
C     3.080000000    -3.666000000    -0.698000000
H     2.847000000    -4.142000000     0.252000000
C     4.003000000    -2.567000000    -0.620000000
O     4.383000000    -2.175000000     0.600000000
C     3.894000000    -0.920000000     1.113000000
C     3.654000000    -1.039000000     2.658000000
C     3.943000000     0.025000000     3.524000000
H     4.219000000     0.944000000     3.012000000
C     3.197000000    -2.221000000     3.210000000
H     3.018000000    -3.122000000     2.630000000
O     4.838000000     0.169000000     0.920000000
H     2.922000000    -0.622000000     0.693000000
C     4.226000000    -1.748000000    -1.770000000
C     5.289000000    -0.702000000    -1.889000000
H     5.728000000    -0.732000000    -2.888000000
H     6.035000000    -0.922000000    -1.122000000
C     4.760000000     0.671000000    -1.468000000
C     4.190000000     1.448000000    -2.486000000
H     4.246000000     1.164000000    -3.534000000
C     4.654000000     1.058000000    -0.133000000
C     4.022000000     2.290000000     0.172000000
H     3.775000000     2.551000000     1.198000000
C     3.552000000     3.120000000    -0.844000000
O     2.877000000     4.263000000    -0.519000000
C     1.370000000     4.168000000    -0.462000000
C     0.700000000     4.714000000     0.728000000
C     1.348000000     4.630000000     1.921000000
H     2.245000000     4.022000000     2.009000000
C    -0.665000000     5.066000000     0.740000000
H    -1.283000000     4.984000000    -0.150000000
O     0.838000000     4.749000000    -1.726000000
H     1.075000000     3.108000000    -0.438000000
C     3.598000000     2.675000000    -2.140000000
C     3.032000000     3.547000000    -3.303000000
H     3.609000000     3.364000000    -4.211000000
H     3.203000000     4.600000000    -3.069000000
C     1.569000000     3.330000000    -3.515000000
C     0.579000000     3.906000000    -2.765000000
C    -0.759000000     3.650000000    -2.956000000
H    -1.548000000     4.034000000    -2.315000000
C    -1.122000000     2.667000000    -3.817000000
O    -2.502000000     2.298000000    -3.932000000
C    -3.020000000     1.072000000    -3.292000000
H    -2.356000000     0.879000000    -2.436000000
C    -4.388000000     1.272000000    -2.674000000
C    -5.324000000     0.238000000    -2.595000000
H    -5.161000000    -0.764000000    -2.982000000
C    -4.615000000     2.556000000    -2.082000000
H    -3.829000000     3.307000000    -2.084000000
C    -5.784000000     2.783000000    -1.343000000
O    -5.876000000     3.906000000    -0.562000000
C    -6.696000000     1.750000000    -1.153000000
H    -7.552000000     1.777000000    -0.483000000
C    -6.431000000     0.549000000    -1.803000000
O    -7.301000000    -0.473000000    -1.380000000
C    -6.781000000    -1.755000000    -1.324000000
C    -5.826000000    -2.019000000    -0.324000000
H    -5.717000000    -1.196000000     0.378000000
C    -7.217000000    -2.767000000    -2.124000000
H    -7.976000000    -2.585000000    -2.880000000
C    -6.552000000    -3.974000000    -2.121000000
H    -6.935000000    -4.811000000    -2.699000000
C    -5.641000000    -4.228000000    -1.191000000
H    -5.176000000    -5.209000000    -1.238000000
C    -5.211000000    -3.241000000    -0.270000000
O    -4.505000000    -3.652000000     0.844000000
C    -3.148000000    -4.139000000     0.781000000
C    -2.625000000    -4.906000000     1.788000000
H    -3.217000000    -5.055000000     2.687000000
C    -1.418000000    -5.411000000     1.769000000
O    -0.921000000    -6.150000000     2.839000000
C     0.424000000    -6.005000000     3.229000000
C     0.757000000    -4.766000000     3.831000000
H     0.019000000    -4.028000000     4.135000000
C     1.265000000    -7.047000000     3.038000000
H     0.946000000    -7.949000000     2.522000000
C     2.548000000    -6.977000000     3.637000000
H     3.190000000    -7.822000000     3.402000000
C     2.917000000    -5.778000000     4.266000000
H     3.900000000    -5.642000000     4.710000000
C     2.045000000    -4.650000000     4.358000000
O     2.439000000    -3.499000000     5.041000000
C     2.992000000    -2.361000000     4.557000000
C     3.307000000    -1.319000000     5.429000000
H     3.029000000    -1.394000000     6.477000000
C     3.762000000    -0.095000000     4.922000000
O     4.089000000     0.946000000     5.767000000
C     3.986000000     2.293000000     5.343000000
C     2.696000000     2.871000000     5.087000000
H     1.832000000     2.265000000     5.347000000
C     5.136000000     2.964000000     5.222000000
H     6.092000000     2.518000000     5.483000000
C     5.075000000     4.305000000     4.944000000
H     6.020000000     4.830000000     4.827000000
C     3.861000000     4.927000000     4.584000000
H     3.806000000     5.974000000     4.296000000
C     2.637000000     4.211000000     4.726000000
O     1.396000000     4.754000000     4.417000000
C     0.764000000     4.998000000     3.179000000
C    -0.545000000     5.539000000     3.159000000
H    -1.134000000     5.799000000     4.034000000
C    -1.220000000     5.516000000     1.953000000
O    -2.508000000     6.031000000     2.028000000
C    -3.545000000     5.155000000     1.897000000
C    -3.842000000     4.376000000     2.981000000
H    -3.168000000     4.521000000     3.822000000
C    -4.767000000     3.361000000     2.889000000
H    -4.875000000     2.730000000     3.767000000
C    -5.471000000     3.173000000     1.693000000
H    -6.186000000     2.359000000     1.596000000
C    -5.150000000     4.027000000     0.566000000
C    -4.176000000     4.958000000     0.680000000
H    -3.848000000     5.598000000    -0.136000000
C    -0.434000000    -1.250000000     1.617000000
H     0.187000000    -1.954000000     2.164000000
C     0.063000000    -0.727000000     0.410000000
H     1.054000000    -1.087000000     0.148000000
C    -0.613000000     0.275000000    -0.218000000
H    -0.069000000     0.780000000    -0.981000000
C    -1.916000000     0.661000000     0.214000000
H    -2.341000000     1.530000000    -0.282000000
C    -2.433000000     0.060000000     1.322000000
H    -3.397000000     0.358000000     1.726000000
C    -1.659000000    -0.824000000     2.069000000
C    -2.050000000    -1.215000000     3.472000000
O    -3.030000000    -0.779000000     4.048000000
O    -1.249000000    -1.831000000     4.155000000
O    -2.118000000    -3.847000000     9.177000000
H    -1.823000000    -3.395000000     8.386000000
H    -1.311000000    -4.096000000     9.626000000
O    -3.027000000    -7.467000000     4.155000000
H    -2.705000000    -7.908000000     4.941000000
H    -2.395000000    -6.765000000     3.999000000
O    -1.591000000    -5.971000000     6.132000000
H    -0.731000000    -5.560000000     6.048000000
H    -1.401000000    -6.890000000     6.320000000
O    -5.994000000    -1.306000000     7.764000000
H    -5.698000000    -0.457000000     7.436000000
H    -6.838000000    -1.448000000     7.335000000
O    -5.900000000    -2.123000000     3.129000000
H    -6.063000000    -3.048000000     2.945000000
H    -4.955000000    -2.070000000     3.274000000
O    -5.611000000     0.285000000     5.180000000
H    -6.311000000    -0.365000000     5.221000000
H    -4.853000000    -0.199000000     4.852000000
O    -2.319000000     0.714000000     6.060000000
H    -2.451000000     0.363000000     5.180000000
H    -1.370000000     0.816000000     6.137000000
O    -0.960000000    -2.718000000     6.628000000
H    -0.911000000    -2.541000000     5.689000000
H    -1.638000000    -2.123000000     6.949000000
O     1.034000000     1.084000000     2.492000000
H     0.517000000     0.544000000     1.894000000
H     1.013000000     1.959000000     2.104000000
O    -6.669000000    -4.161000000     4.975000000
H    -5.815000000    -3.784000000     5.188000000
H    -6.485000000    -5.083000000     4.794000000
O    -1.817000000     0.934000000     9.574000000
H    -1.466000000     1.683000000     9.092000000
H    -1.897000000     0.243000000     8.917000000
O    -3.524000000     3.466000000     6.708000000
H    -3.068000000     2.638000000     6.555000000
H    -4.452000000     3.245000000     6.636000000
O     1.158000000    -2.088000000     8.485000000
H     0.926000000    -2.289000000     9.392000000
H     0.465000000    -2.494000000     7.965000000
O    -3.823000000    -3.383000000     4.835000000
H    -3.297000000    -2.584000000     4.789000000
H    -3.293000000    -3.988000000     5.354000000
O    -2.839000000    -1.382000000     7.775000000
H    -2.789000000    -0.560000000     7.287000000
H    -3.776000000    -1.519000000     7.916000000
O     0.572000000     0.128000000     4.946000000
H     0.844000000     0.534000000     4.123000000
H     0.222000000    -0.725000000     4.689000000
O     0.857000000     0.351000000     7.467000000
H     0.893000000     0.331000000     6.511000000
H     1.008000000    -0.557000000     7.731000000
O    -6.160000000     2.362000000     6.632000000
H    -6.898000000     1.984000000     7.111000000
H    -5.919000000     1.690000000     5.994000000
O    -7.902000000     0.095000000     2.284000000
H    -8.321000000     0.289000000     3.123000000
H    -7.276000000    -0.602000000     2.485000000
