215
-1448.24416
C    -0.279000000    -5.518000000    -0.234000000
H     0.784000000    -5.454000000    -0.014000000
C    -0.815000000    -4.845000000    -1.399000000
C    -2.206000000    -4.845000000    -1.626000000
H    -2.629000000    -4.329000000    -2.484000000
C     0.043000000    -3.941000000    -2.291000000
O     1.456000000    -4.384000000    -2.314000000
H    -0.082000000    -2.920000000    -1.900000000
O    -0.418000000    -3.768000000    -3.672000000
C    -0.203000000    -2.507000000    -4.252000000
C    -1.294000000    -1.621000000    -4.033000000
H    -2.249000000    -2.005000000    -3.683000000
C    -1.179000000    -0.329000000    -4.557000000
O    -2.210000000     0.485000000    -4.426000000
C     0.056000000     0.163000000    -5.119000000
C     0.210000000     1.580000000    -5.683000000
H     1.054000000     1.507000000    -6.372000000
C     0.323000000     2.604000000    -4.545000000
C     1.628000000     2.814000000    -4.134000000
H     2.452000000     2.243000000    -4.555000000
H    -0.589000000     1.805000000    -6.393000000
C     1.160000000    -0.744000000    -5.154000000
H     2.123000000    -0.315000000    -5.417000000
C     1.019000000    -2.047000000    -4.709000000
C     2.303000000    -2.862000000    -4.518000000
H     3.073000000    -2.603000000    -5.249000000
H     2.144000000    -3.929000000    -4.684000000
C     2.833000000    -2.596000000    -3.149000000
C     3.799000000    -1.570000000    -2.894000000
H     4.207000000    -0.922000000    -3.666000000
C     2.452000000    -3.439000000    -2.108000000
C     2.952000000    -3.305000000    -0.850000000
H     2.511000000    -3.815000000     0.004000000
C     3.883000000    -2.324000000    -0.544000000
O     4.081000000    -2.065000000     0.841000000
C     3.568000000    -0.871000000     1.425000000
C     3.118000000    -1.146000000     2.914000000
C     3.183000000    -0.110000000     3.906000000
H     3.481000000     0.904000000     3.652000000
C     2.619000000    -2.452000000     3.322000000
H     2.432000000    -3.227000000     2.583000000
O     4.580000000     0.123000000     1.475000000
H     2.657000000    -0.543000000     0.903000000
C     4.313000000    -1.425000000    -1.566000000
C     5.386000000    -0.421000000    -1.214000000
H     6.024000000    -0.244000000    -2.082000000
H     5.958000000    -0.814000000    -0.371000000
C     4.806000000     0.910000000    -0.814000000
C     4.439000000     1.796000000    -1.829000000
H     4.719000000     1.625000000    -2.866000000
C     4.482000000     1.109000000     0.520000000
C     3.862000000     2.315000000     0.876000000
H     3.497000000     2.492000000     1.884000000
C     3.497000000     3.239000000    -0.094000000
O     2.615000000     4.247000000     0.271000000
C     1.218000000     4.100000000    -0.005000000
C     0.391000000     4.513000000     1.173000000
C     0.826000000     4.181000000     2.450000000
H     1.764000000     3.667000000     2.641000000
C    -0.809000000     5.231000000     1.045000000
H    -1.161000000     5.581000000     0.078000000
O     0.969000000     4.928000000    -1.156000000
H     0.953000000     3.035000000    -0.085000000
C     3.743000000     2.958000000    -1.449000000
C     3.201000000     3.828000000    -2.565000000
H     3.845000000     3.730000000    -3.442000000
H     3.367000000     4.865000000    -2.267000000
C     1.831000000     3.570000000    -2.972000000
C     0.795000000     4.168000000    -2.267000000
C    -0.490000000     3.950000000    -2.701000000
H    -1.339000000     4.359000000    -2.159000000
C    -0.735000000     3.105000000    -3.757000000
O    -2.072000000     2.765000000    -3.974000000
C    -2.331000000     1.478000000    -3.390000000
H    -1.563000000     1.219000000    -2.646000000
C    -3.548000000     1.381000000    -2.547000000
C    -4.024000000     0.192000000    -1.981000000
H    -3.529000000    -0.747000000    -2.215000000
C    -4.220000000     2.534000000    -2.237000000
H    -3.840000000     3.488000000    -2.593000000
C    -5.237000000     2.584000000    -1.222000000
O    -5.718000000     3.792000000    -0.841000000
C    -5.651000000     1.335000000    -0.684000000
H    -6.396000000     1.343000000     0.107000000
C    -5.057000000     0.160000000    -1.067000000
O    -5.517000000    -1.030000000    -0.544000000
C    -5.507000000    -2.183000000    -1.278000000
C    -4.945000000    -3.344000000    -0.733000000
H    -4.392000000    -3.259000000     0.199000000
C    -6.308000000    -2.295000000    -2.342000000
H    -6.771000000    -1.396000000    -2.742000000
C    -6.396000000    -3.500000000    -3.086000000
H    -6.987000000    -3.545000000    -3.998000000
C    -5.651000000    -4.612000000    -2.657000000
H    -5.810000000    -5.527000000    -3.223000000
C    -4.950000000    -4.501000000    -1.469000000
O    -4.342000000    -5.654000000    -1.056000000
C    -3.052000000    -5.548000000    -0.766000000
C    -2.561000000    -6.168000000     0.394000000
H    -3.143000000    -6.770000000     1.087000000
C    -1.209000000    -6.100000000     0.655000000
O    -0.783000000    -6.679000000     1.790000000
C     0.389000000    -6.369000000     2.503000000
C     0.576000000    -5.204000000     3.298000000
H    -0.170000000    -4.413000000     3.293000000
C     1.381000000    -7.364000000     2.560000000
H     1.306000000    -8.208000000     1.879000000
C     2.427000000    -7.265000000     3.474000000
H     3.126000000    -8.082000000     3.633000000
C     2.491000000    -6.099000000     4.308000000
H     3.304000000    -5.895000000     5.000000000
C     1.622000000    -5.019000000     4.140000000
O     1.759000000    -3.913000000     4.992000000
C     2.247000000    -2.698000000     4.617000000
C     2.309000000    -1.706000000     5.573000000
H     1.936000000    -1.909000000     6.574000000
C     2.763000000    -0.403000000     5.202000000
O     2.996000000     0.527000000     6.206000000
C     2.972000000     1.859000000     5.998000000
C     1.806000000     2.418000000     5.401000000
H     0.993000000     1.873000000     4.928000000
C     3.976000000     2.647000000     6.475000000
H     4.843000000     2.280000000     7.019000000
C     3.899000000     4.010000000     6.350000000
H     4.784000000     4.582000000     6.616000000
C     2.809000000     4.574000000     5.727000000
H     2.781000000     5.658000000     5.800000000
C     1.684000000     3.827000000     5.361000000
O     0.567000000     4.478000000     4.855000000
C     0.062000000     4.522000000     3.578000000
C    -1.148000000     5.118000000     3.425000000
H    -1.755000000     5.260000000     4.315000000
C    -1.553000000     5.499000000     2.156000000
O    -2.694000000     6.157000000     1.996000000
C    -3.838000000     5.411000000     1.877000000
C    -4.863000000     5.444000000     2.862000000
H    -4.675000000     6.010000000     3.771000000
C    -6.091000000     4.832000000     2.673000000
H    -6.915000000     4.935000000     3.375000000
C    -6.342000000     4.213000000     1.430000000
H    -7.350000000     3.844000000     1.258000000
C    -5.364000000     4.206000000     0.429000000
C    -4.121000000     4.781000000     0.683000000
H    -3.436000000     4.756000000    -0.161000000
C    -1.649000000    -1.838000000     1.578000000
H    -2.040000000    -2.665000000     2.165000000
C    -0.619000000    -1.876000000     0.595000000
H     0.005000000    -2.745000000     0.398000000
C    -0.287000000    -0.700000000    -0.108000000
H     0.477000000    -0.686000000    -0.840000000
C    -0.991000000     0.436000000     0.096000000
H    -0.650000000     1.369000000    -0.344000000
C    -2.036000000     0.434000000     1.002000000
H    -2.525000000     1.404000000     1.051000000
C    -2.453000000    -0.664000000     1.777000000
C    -3.767000000    -0.556000000     2.567000000
O    -4.650000000     0.219000000     2.309000000
O    -3.871000000    -1.284000000     3.496000000
O    -4.935000000    -6.135000000     3.107000000
H    -5.104000000    -6.477000000     3.985000000
H    -5.183000000    -5.212000000     3.157000000
O    -7.145000000    -1.307000000     6.406000000
H    -7.524000000    -1.490000000     5.547000000
H    -6.278000000    -1.711000000     6.377000000
O    -7.260000000     0.002000000     2.226000000
H    -7.501000000    -0.131000000     1.309000000
H    -6.326000000     0.210000000     2.201000000
O    -3.921000000    -0.501000000     6.028000000
H    -4.192000000    -0.599000000     5.115000000
H    -2.986000000    -0.304000000     5.980000000
O    -4.806000000     2.194000000     3.939000000
H    -4.938000000     1.442000000     3.361000000
H    -4.990000000     2.955000000     3.388000000
O    -2.633000000    -5.096000000     6.258000000
H    -2.250000000    -5.810000000     5.748000000
H    -2.624000000    -4.346000000     5.663000000
O    -1.150000000     3.127000000     7.514000000
H    -1.237000000     3.055000000     6.563000000
H    -0.207000000     3.195000000     7.664000000
O   -10.201000000     1.053000000     2.798000000
H    -9.572000000     1.584000000     3.286000000
H    -9.668000000     0.383000000     2.370000000
O    -8.090000000    -2.084000000     3.866000000
H    -8.853000000    -2.579000000     3.567000000
H    -7.943000000    -1.434000000     3.178000000
O    -1.595000000     2.182000000     5.022000000
H    -1.573000000     1.225000000     5.052000000
H    -2.182000000     2.385000000     4.293000000
O    -7.949000000    -4.406000000     0.974000000
H    -7.401000000    -5.066000000     1.399000000
H    -7.568000000    -3.570000000     1.242000000
O    -3.990000000     4.345000000     5.887000000
H    -3.519000000     4.926000000     6.485000000
H    -3.681000000     3.468000000     6.113000000
O    -2.174000000    -3.004000000     4.563000000
H    -2.896000000    -2.686000000     4.022000000
H    -1.541000000    -2.286000000     4.564000000
O    -1.089000000    -0.505000000     5.372000000
H    -0.217000000    -0.590000000     4.987000000
H    -1.022000000    -0.948000000     6.218000000
O    -4.717000000    -3.329000000     6.476000000
H    -4.161000000    -2.610000000     6.777000000
H    -4.103000000    -4.034000000     6.266000000
O    -5.695000000    -3.388000000     2.940000000
H    -4.919000000    -2.829000000     2.913000000
H    -6.282000000    -2.955000000     3.560000000
O    -4.560000000    -0.515000000     8.685000000
H    -4.675000000    -1.433000000     8.931000000
H    -4.408000000    -0.538000000     7.740000000
O    -8.306000000     3.079000000     4.132000000
H    -8.898000000     3.808000000     3.944000000
H    -7.796000000     3.373000000     4.887000000
O    -5.708000000     1.703000000     6.521000000
H    -5.720000000     0.750000000     6.606000000
H    -5.556000000     1.859000000     5.589000000
