215
-1463.24049
C    -1.049000000    -4.842000000     0.776000000
H    -0.130000000    -4.508000000     1.251000000
C    -1.186000000    -4.731000000    -0.617000000
C    -2.464000000    -4.966000000    -1.155000000
H    -2.725000000    -4.710000000    -2.178000000
C    -0.159000000    -3.975000000    -1.450000000
O     1.161000000    -4.349000000    -1.034000000
H    -0.251000000    -2.905000000    -1.213000000
O    -0.292000000    -4.167000000    -2.826000000
C    -0.052000000    -3.086000000    -3.572000000
C    -1.096000000    -2.226000000    -3.933000000
H    -2.094000000    -2.473000000    -3.583000000
C    -0.948000000    -1.041000000    -4.669000000
O    -1.964000000    -0.171000000    -4.815000000
C     0.370000000    -0.657000000    -5.032000000
C     0.750000000     0.692000000    -5.668000000
H     1.653000000     0.620000000    -6.279000000
C     0.960000000     1.710000000    -4.608000000
C     2.210000000     2.113000000    -4.103000000
H     3.114000000     1.718000000    -4.558000000
H    -0.056000000     0.949000000    -6.358000000
C     1.433000000    -1.571000000    -4.711000000
H     2.459000000    -1.239000000    -4.847000000
C     1.241000000    -2.777000000    -4.004000000
C     2.501000000    -3.535000000    -3.503000000
H     3.385000000    -3.416000000    -4.132000000
H     2.328000000    -4.613000000    -3.526000000
C     2.894000000    -3.081000000    -2.132000000
C     3.984000000    -2.195000000    -1.984000000
H     4.516000000    -1.917000000    -2.890000000
C     2.171000000    -3.411000000    -0.986000000
C     2.620000000    -2.963000000     0.249000000
H     2.177000000    -3.448000000     1.115000000
C     3.694000000    -2.082000000     0.394000000
O     3.929000000    -1.848000000     1.721000000
C     3.668000000    -0.499000000     2.120000000
C     3.041000000    -0.367000000     3.489000000
C     2.993000000     0.814000000     4.250000000
H     3.496000000     1.713000000     3.904000000
C     2.278000000    -1.441000000     3.977000000
H     2.289000000    -2.379000000     3.429000000
O     4.767000000     0.438000000     2.056000000
H     2.898000000    -0.079000000     1.457000000
C     4.354000000    -1.612000000    -0.775000000
C     5.474000000    -0.685000000    -0.574000000
H     6.050000000    -0.702000000    -1.502000000
H     6.088000000    -1.036000000     0.258000000
C     4.946000000     0.663000000    -0.342000000
C     4.810000000     1.484000000    -1.481000000
H     4.913000000     0.978000000    -2.438000000
C     4.742000000     1.241000000     0.926000000
C     4.138000000     2.457000000     1.065000000
H     3.850000000     2.743000000     2.074000000
C     3.791000000     3.120000000    -0.077000000
O     3.066000000     4.274000000     0.082000000
C     1.625000000     4.197000000    -0.198000000
C     0.788000000     4.868000000     0.867000000
C     1.272000000     5.283000000     2.157000000
H     2.323000000     5.276000000     2.434000000
C    -0.558000000     5.094000000     0.523000000
H    -0.992000000     4.893000000    -0.454000000
O     1.347000000     4.702000000    -1.529000000
H     1.332000000     3.139000000    -0.260000000
C     4.141000000     2.702000000    -1.340000000
C     3.840000000     3.444000000    -2.629000000
H     4.545000000     3.178000000    -3.420000000
H     3.897000000     4.534000000    -2.607000000
C     2.410000000     3.046000000    -3.064000000
C     1.283000000     3.693000000    -2.537000000
C     0.016000000     3.394000000    -2.998000000
H    -0.873000000     3.949000000    -2.710000000
C    -0.137000000     2.415000000    -3.965000000
O    -1.417000000     2.130000000    -4.250000000
C    -2.004000000     0.883000000    -3.745000000
H    -1.441000000     0.538000000    -2.865000000
C    -3.472000000     0.893000000    -3.280000000
C    -4.257000000    -0.252000000    -3.506000000
H    -3.937000000    -1.157000000    -4.018000000
C    -3.979000000     1.969000000    -2.511000000
H    -3.416000000     2.850000000    -2.214000000
C    -5.264000000     1.885000000    -2.042000000
O    -5.831000000     2.822000000    -1.201000000
C    -6.029000000     0.717000000    -2.314000000
H    -7.036000000     0.656000000    -1.909000000
C    -5.560000000    -0.399000000    -2.985000000
O    -6.373000000    -1.500000000    -3.367000000
C    -5.922000000    -2.852000000    -3.338000000
C    -5.474000000    -3.412000000    -2.180000000
H    -5.351000000    -2.895000000    -1.231000000
C    -5.965000000    -3.643000000    -4.435000000
H    -6.362000000    -3.128000000    -5.306000000
C    -5.651000000    -4.978000000    -4.386000000
H    -5.958000000    -5.566000000    -5.247000000
C    -5.247000000    -5.608000000    -3.185000000
H    -5.235000000    -6.689000000    -3.076000000
C    -5.140000000    -4.789000000    -2.099000000
O    -4.844000000    -5.428000000    -0.899000000
C    -3.560000000    -5.307000000    -0.380000000
C    -3.367000000    -5.483000000     0.975000000
H    -4.176000000    -5.847000000     1.605000000
C    -2.141000000    -5.241000000     1.575000000
O    -2.037000000    -5.332000000     2.947000000
C    -0.908000000    -5.085000000     3.626000000
C    -0.792000000    -3.835000000     4.242000000
H    -1.628000000    -3.145000000     4.328000000
C     0.150000000    -6.007000000     3.652000000
H     0.046000000    -6.998000000     3.218000000
C     1.446000000    -5.634000000     4.040000000
H     2.226000000    -6.385000000     4.132000000
C     1.567000000    -4.407000000     4.695000000
H     2.564000000    -4.155000000     5.047000000
C     0.478000000    -3.533000000     4.831000000
O     0.618000000    -2.357000000     5.591000000
C     1.537000000    -1.363000000     5.178000000
C     1.456000000    -0.166000000     5.894000000
H     0.830000000    -0.119000000     6.781000000
C     2.279000000     0.887000000     5.434000000
O     2.343000000     1.976000000     6.202000000
C     2.530000000     3.270000000     5.771000000
C     1.510000000     4.090000000     5.253000000
H     0.600000000     3.584000000     4.943000000
C     3.709000000     3.820000000     6.088000000
H     4.514000000     3.208000000     6.487000000
C     4.007000000     5.163000000     5.929000000
H     4.951000000     5.520000000     6.331000000
C     3.057000000     5.983000000     5.375000000
H     3.210000000     7.055000000     5.288000000
C     1.763000000     5.448000000     4.985000000
O     0.883000000     6.281000000     4.311000000
C     0.426000000     5.878000000     3.085000000
C    -0.930000000     5.954000000     2.804000000
H    -1.642000000     6.273000000     3.560000000
C    -1.438000000     5.474000000     1.586000000
O    -2.835000000     5.583000000     1.386000000
C    -3.643000000     4.489000000     1.266000000
C    -3.791000000     3.623000000     2.375000000
H    -3.274000000     3.792000000     3.316000000
C    -4.634000000     2.538000000     2.270000000
H    -4.741000000     1.882000000     3.130000000
C    -5.229000000     2.182000000     1.036000000
H    -5.826000000     1.290000000     0.865000000
C    -5.224000000     3.142000000     0.011000000
C    -4.374000000     4.269000000     0.070000000
H    -4.303000000     4.828000000    -0.859000000
C    -1.177000000    -0.855000000     2.048000000
H    -0.935000000    -0.626000000     3.083000000
C    -0.212000000    -0.710000000     1.064000000
H     0.863000000    -0.586000000     1.166000000
C    -0.625000000    -0.727000000    -0.234000000
H     0.105000000    -0.591000000    -0.992000000
C    -1.954000000    -0.937000000    -0.583000000
H    -2.328000000    -0.866000000    -1.601000000
C    -2.882000000    -1.157000000     0.435000000
H    -3.898000000    -1.444000000     0.178000000
C    -2.560000000    -1.047000000     1.790000000
C    -3.600000000    -1.087000000     2.933000000
O    -4.496000000    -1.856000000     2.758000000
O    -3.345000000    -0.658000000     4.065000000
O    -3.780000000    -2.869000000     9.257000000
H    -3.392000000    -3.263000000     8.476000000
H    -4.647000000    -3.271000000     9.323000000
O    -4.488000000    -4.229000000     3.942000000
H    -3.689000000    -4.650000000     3.625000000
H    -4.502000000    -3.380000000     3.502000000
O    -8.057000000     1.843000000     4.706000000
H    -7.406000000     1.141000000     4.725000000
H    -7.541000000     2.647000000     4.653000000
O    -8.338000000    -0.870000000     0.282000000
H    -8.042000000    -1.503000000     0.936000000
H    -8.326000000    -1.354000000    -0.544000000
O    -4.927000000     1.122000000     5.675000000
H    -4.567000000     0.953000000     6.545000000
H    -4.498000000     0.479000000     5.110000000
O    -7.907000000    -3.465000000     4.568000000
H    -7.351000000    -2.708000000     4.386000000
H    -7.478000000    -3.907000000     5.301000000
O    -2.640000000    -1.899000000     6.374000000
H    -2.733000000    -1.500000000     5.509000000
H    -3.516000000    -2.224000000     6.584000000
O    -0.101000000     1.988000000     2.536000000
H    -0.015000000     2.649000000     1.849000000
H     0.266000000     1.193000000     2.150000000
O    -6.993000000    -2.939000000     1.690000000
H    -7.436000000    -3.408000000     2.396000000
H    -6.169000000    -2.645000000     2.078000000
O    -3.622000000     0.002000000     8.901000000
H    -2.716000000     0.310000000     8.933000000
H    -3.551000000    -0.952000000     8.894000000
O    -1.652000000     4.022000000     6.532000000
H    -0.809000000     3.835000000     6.945000000
H    -1.793000000     3.289000000     5.933000000
O    -8.262000000    -4.097000000    -0.877000000
H    -7.307000000    -4.023000000    -0.867000000
H    -8.510000000    -4.115000000     0.047000000
O    -5.719000000     3.640000000     5.939000000
H    -5.594000000     2.735000000     5.652000000
H    -6.421000000     3.591000000     6.588000000
O    -0.601000000    -1.975000000     8.260000000
H    -1.055000000    -1.527000000     7.547000000
H    -0.924000000    -2.875000000     8.222000000
O    -1.993000000     1.852000000     4.373000000
H    -1.328000000     2.027000000     3.707000000
H    -2.357000000     1.001000000     4.130000000
O    -6.625000000    -1.165000000     4.095000000
H    -6.925000000    -0.489000000     3.487000000
H    -5.829000000    -1.513000000     3.693000000
O    -6.147000000    -6.448000000     3.847000000
H    -5.778000000    -5.565000000     3.827000000
H    -6.183000000    -6.672000000     4.776000000
O    -3.365000000    -4.895000000     6.885000000
H    -2.429000000    -5.017000000     7.044000000
H    -3.410000000    -4.489000000     6.020000000
O    -5.973000000    -2.079000000     6.740000000
H    -6.512000000    -1.667000000     6.064000000
H    -6.403000000    -1.846000000     7.563000000
