215
-1448.33438
C    -0.862000000    -4.738000000     0.617000000
H     0.160000000    -4.657000000     0.979000000
C    -1.232000000    -4.402000000    -0.710000000
C    -2.559000000    -4.358000000    -1.145000000
H    -2.736000000    -3.854000000    -2.092000000
C    -0.086000000    -3.948000000    -1.613000000
O     1.219000000    -4.577000000    -1.356000000
H     0.007000000    -2.884000000    -1.349000000
O    -0.440000000    -4.117000000    -3.072000000
C    -0.173000000    -3.031000000    -3.778000000
C    -1.267000000    -2.255000000    -4.123000000
H    -2.309000000    -2.533000000    -3.988000000
C    -0.997000000    -0.944000000    -4.560000000
O    -2.113000000    -0.075000000    -4.715000000
C     0.289000000    -0.469000000    -4.857000000
C     0.437000000     0.935000000    -5.486000000
H     1.358000000     0.865000000    -6.068000000
C     0.594000000     2.046000000    -4.499000000
C     1.881000000     2.406000000    -4.178000000
H     2.679000000     1.848000000    -4.661000000
H    -0.374000000     1.137000000    -6.188000000
C     1.341000000    -1.331000000    -4.656000000
H     2.390000000    -1.152000000    -4.876000000
C     1.113000000    -2.579000000    -4.131000000
C     2.354000000    -3.450000000    -3.796000000
H     3.189000000    -3.205000000    -4.455000000
H     2.168000000    -4.522000000    -3.888000000
C     2.828000000    -3.144000000    -2.343000000
C     3.867000000    -2.190000000    -2.219000000
H     4.325000000    -1.732000000    -3.092000000
C     2.247000000    -3.679000000    -1.190000000
C     2.830000000    -3.359000000     0.036000000
H     2.476000000    -3.879000000     0.922000000
C     3.833000000    -2.426000000     0.153000000
O     4.150000000    -2.012000000     1.469000000
C     3.562000000    -0.767000000     1.884000000
C     3.128000000    -0.656000000     3.302000000
C     3.491000000     0.333000000     4.220000000
H     4.245000000     1.062000000     3.936000000
C     2.229000000    -1.653000000     3.763000000
H     2.042000000    -2.529000000     3.147000000
O     4.576000000     0.220000000     1.645000000
H     2.719000000    -0.619000000     1.193000000
C     4.391000000    -1.795000000    -0.940000000
C     5.467000000    -0.720000000    -0.984000000
H     6.081000000    -0.708000000    -1.887000000
H     6.208000000    -0.944000000    -0.213000000
C     4.836000000     0.660000000    -0.737000000
C     4.617000000     1.547000000    -1.796000000
H     4.892000000     1.358000000    -2.830000000
C     4.444000000     1.047000000     0.562000000
C     3.857000000     2.259000000     0.762000000
H     3.529000000     2.626000000     1.731000000
C     3.467000000     3.086000000    -0.300000000
O     2.730000000     4.180000000     0.042000000
C     1.291000000     4.203000000    -0.212000000
C     0.545000000     4.788000000     0.943000000
C     1.211000000     4.967000000     2.231000000
H     2.288000000     4.821000000     2.260000000
C    -0.814000000     5.002000000     0.918000000
H    -1.466000000     4.727000000     0.093000000
O     1.192000000     4.865000000    -1.524000000
H     1.004000000     3.148000000    -0.333000000
C     3.969000000     2.804000000    -1.558000000
C     3.544000000     3.622000000    -2.743000000
H     4.260000000     3.432000000    -3.545000000
H     3.558000000     4.696000000    -2.545000000
C     2.097000000     3.395000000    -3.211000000
C     1.014000000     4.014000000    -2.604000000
C    -0.311000000     3.645000000    -2.887000000
H    -1.122000000     4.284000000    -2.548000000
C    -0.506000000     2.653000000    -3.919000000
O    -1.789000000     2.257000000    -4.219000000
C    -2.318000000     0.931000000    -3.622000000
H    -1.633000000     0.587000000    -2.834000000
C    -3.719000000     0.997000000    -3.242000000
C    -4.566000000    -0.094000000    -3.300000000
H    -4.267000000    -1.023000000    -3.780000000
C    -4.120000000     2.098000000    -2.553000000
H    -3.450000000     2.874000000    -2.192000000
C    -5.401000000     2.129000000    -1.946000000
O    -5.680000000     3.214000000    -1.228000000
C    -6.269000000     1.030000000    -2.007000000
H    -7.242000000     0.940000000    -1.530000000
C    -5.819000000    -0.066000000    -2.722000000
O    -6.732000000    -1.038000000    -2.931000000
C    -6.276000000    -2.326000000    -2.935000000
C    -5.623000000    -2.963000000    -1.881000000
H    -5.394000000    -2.385000000    -0.990000000
C    -6.574000000    -3.098000000    -4.050000000
H    -7.068000000    -2.662000000    -4.914000000
C    -6.266000000    -4.435000000    -4.091000000
H    -6.520000000    -5.063000000    -4.941000000
C    -5.602000000    -5.077000000    -3.037000000
H    -5.386000000    -6.142000000    -3.059000000
C    -5.349000000    -4.312000000    -1.856000000
O    -4.902000000    -4.883000000    -0.620000000
C    -3.547000000    -4.784000000    -0.265000000
C    -3.233000000    -5.227000000     0.990000000
H    -4.007000000    -5.431000000     1.725000000
C    -1.928000000    -5.161000000     1.484000000
O    -1.682000000    -5.376000000     2.821000000
C    -0.500000000    -5.199000000     3.481000000
C    -0.340000000    -4.076000000     4.296000000
H    -1.223000000    -3.460000000     4.440000000
C     0.505000000    -6.071000000     3.383000000
H     0.320000000    -6.952000000     2.774000000
C     1.726000000    -5.803000000     3.972000000
H     2.585000000    -6.439000000     3.772000000
C     1.904000000    -4.659000000     4.773000000
H     2.860000000    -4.489000000     5.260000000
C     0.798000000    -3.827000000     4.946000000
O     0.896000000    -2.584000000     5.607000000
C     1.753000000    -1.633000000     5.111000000
C     2.169000000    -0.613000000     6.022000000
H     1.726000000    -0.533000000     7.012000000
C     3.006000000     0.406000000     5.558000000
O     3.334000000     1.476000000     6.403000000
C     3.365000000     2.767000000     5.960000000
C     2.297000000     3.408000000     5.328000000
H     1.384000000     2.842000000     5.156000000
C     4.456000000     3.562000000     6.292000000
H     5.320000000     3.106000000     6.769000000
C     4.460000000     4.936000000     6.045000000
H     5.327000000     5.537000000     6.305000000
C     3.418000000     5.515000000     5.347000000
H     3.438000000     6.579000000     5.126000000
C     2.344000000     4.769000000     4.962000000
O     1.227000000     5.375000000     4.535000000
C     0.533000000     5.389000000     3.344000000
C    -0.836000000     5.631000000     3.223000000
H    -1.425000000     5.905000000     4.094000000
C    -1.546000000     5.355000000     2.057000000
O    -2.894000000     5.584000000     1.918000000
C    -3.738000000     4.506000000     1.625000000
C    -3.884000000     3.434000000     2.559000000
H    -3.350000000     3.557000000     3.498000000
C    -4.627000000     2.308000000     2.166000000
H    -4.823000000     1.429000000     2.774000000
C    -5.248000000     2.300000000     0.911000000
H    -5.863000000     1.451000000     0.622000000
C    -5.067000000     3.354000000     0.018000000
C    -4.310000000     4.479000000     0.318000000
H    -4.023000000     5.120000000    -0.512000000
C    -1.151000000    -1.168000000     1.724000000
H    -0.560000000    -1.245000000     2.633000000
C    -0.559000000    -1.078000000     0.463000000
H     0.514000000    -0.951000000     0.346000000
C    -1.363000000    -1.160000000    -0.689000000
H    -0.948000000    -1.146000000    -1.722000000
C    -2.749000000    -1.201000000    -0.562000000
H    -3.286000000    -1.038000000    -1.493000000
C    -3.339000000    -1.241000000     0.729000000
H    -4.421000000    -1.296000000     0.808000000
C    -2.520000000    -1.209000000     1.848000000
C    -3.161000000    -1.295000000     3.260000000
O    -4.345000000    -1.262000000     3.281000000
O    -2.481000000    -1.289000000     4.284000000
O    -4.240000000    -3.647000000     4.782000000
H    -4.101000000    -2.866000000     4.247000000
H    -3.566000000    -3.597000000     5.459000000
O    -7.532000000     2.163000000     5.147000000
H    -7.434000000     1.433000000     5.758000000
H    -7.549000000     2.941000000     5.705000000
O    -4.363000000    -0.039000000     6.008000000
H    -4.965000000    -0.745000000     6.244000000
H    -4.141000000    -0.209000000     5.093000000
O    -3.564000000    -0.783000000     9.823000000
H    -2.842000000    -0.549000000     9.239000000
H    -3.506000000    -1.735000000     9.906000000
O    -9.370000000    -2.679000000     3.799000000
H   -10.034000000    -2.211000000     4.306000000
H    -8.629000000    -2.074000000     3.761000000
O    -2.362000000    -2.360000000     6.605000000
H    -2.505000000    -2.015000000     5.724000000
H    -2.569000000    -1.628000000     7.185000000
O    -4.603000000    -7.267000000     4.071000000
H    -4.765000000    -7.459000000     3.147000000
H    -4.098000000    -6.454000000     4.061000000
O    -1.001000000     1.657000000     2.049000000
H    -1.006000000     0.870000000     1.504000000
H    -1.770000000     2.150000000     1.765000000
O    -6.572000000    -4.543000000     2.942000000
H    -6.178000000    -4.874000000     3.749000000
H    -6.616000000    -3.595000000     3.068000000
O    -1.985000000     0.148000000     7.938000000
H    -1.865000000     0.241000000     6.993000000
H    -1.620000000     0.953000000     8.306000000
O    -1.120000000     3.557000000     6.248000000
H    -0.380000000     3.506000000     6.852000000
H    -1.161000000     2.689000000     5.845000000
O    -7.507000000    -5.082000000     0.561000000
H    -6.594000000    -5.251000000     0.328000000
H    -7.462000000    -4.674000000     1.426000000
O    -4.690000000     2.007000000     7.653000000
H    -4.407000000     1.280000000     7.098000000
H    -5.228000000     1.597000000     8.330000000
O    -0.414000000    -3.992000000     7.679000000
H     0.260000000    -4.035000000     7.001000000
H    -1.031000000    -3.333000000     7.362000000
O    -1.575000000     1.220000000     4.872000000
H    -1.468000000     1.598000000     3.999000000
H    -1.564000000     0.274000000     4.726000000
O    -6.832000000    -1.561000000     3.898000000
H    -6.692000000    -1.767000000     4.822000000
H    -5.953000000    -1.420000000     3.547000000
O    -8.676000000     0.918000000     0.913000000
H    -8.074000000     0.457000000     1.497000000
H    -9.333000000     0.263000000     0.680000000
O    -4.534000000    -5.807000000     7.292000000
H    -3.647000000    -5.909000000     6.947000000
H    -4.742000000    -6.660000000     7.673000000
O    -6.117000000    -2.112000000     6.427000000
H    -5.483000000    -2.781000000     6.170000000
H    -6.598000000    -2.504000000     7.156000000
