215
-1450.63188
C    -0.871000000    -4.422000000     1.021000000
H     0.081000000    -4.306000000     1.532000000
C    -0.942000000    -4.232000000    -0.368000000
C    -2.174000000    -4.273000000    -1.041000000
H    -2.240000000    -4.010000000    -2.094000000
C     0.294000000    -3.731000000    -1.123000000
O     1.471000000    -4.339000000    -0.549000000
H     0.308000000    -2.644000000    -0.954000000
O     0.201000000    -4.143000000    -2.501000000
C     0.559000000    -3.181000000    -3.443000000
C    -0.440000000    -2.416000000    -3.993000000
H    -1.398000000    -2.612000000    -3.519000000
C    -0.133000000    -1.237000000    -4.832000000
O    -1.207000000    -0.514000000    -5.285000000
C     1.174000000    -0.775000000    -4.900000000
C     1.395000000     0.574000000    -5.565000000
H     2.361000000     0.536000000    -6.073000000
C     1.369000000     1.743000000    -4.526000000
C     2.538000000     2.220000000    -3.943000000
H     3.425000000     1.643000000    -4.195000000
H     0.655000000     0.675000000    -6.361000000
C     2.182000000    -1.624000000    -4.292000000
H     3.219000000    -1.299000000    -4.326000000
C     1.891000000    -2.794000000    -3.590000000
C     2.990000000    -3.624000000    -2.958000000
H     3.812000000    -3.534000000    -3.671000000
H     2.765000000    -4.686000000    -3.078000000
C     3.302000000    -3.134000000    -1.510000000
C     4.253000000    -2.099000000    -1.403000000
H     4.805000000    -1.779000000    -2.283000000
C     2.560000000    -3.578000000    -0.404000000
C     2.887000000    -3.027000000     0.828000000
H     2.464000000    -3.386000000     1.763000000
C     3.789000000    -1.986000000     0.932000000
O     3.913000000    -1.393000000     2.207000000
C     3.337000000    -0.059000000     2.427000000
C     2.622000000    -0.026000000     3.731000000
C     2.656000000     1.113000000     4.609000000
H     3.244000000     1.969000000     4.287000000
C     1.793000000    -1.053000000     4.157000000
H     1.820000000    -1.962000000     3.562000000
O     4.455000000     0.844000000     2.420000000
H     2.559000000     0.111000000     1.668000000
C     4.492000000    -1.501000000    -0.128000000
C     5.601000000    -0.383000000     0.071000000
H     6.258000000    -0.413000000    -0.801000000
H     6.207000000    -0.583000000     0.957000000
C     5.018000000     1.057000000     0.131000000
C     4.768000000     1.729000000    -1.055000000
H     4.972000000     1.246000000    -2.008000000
C     4.514000000     1.620000000     1.325000000
C     3.863000000     2.814000000     1.367000000
H     3.488000000     3.161000000     2.326000000
C     3.594000000     3.514000000     0.189000000
O     2.700000000     4.552000000     0.221000000
C     1.403000000     4.305000000    -0.270000000
C     0.304000000     4.720000000     0.762000000
C     0.584000000     4.930000000     2.076000000
H     1.602000000     4.930000000     2.456000000
C    -1.037000000     4.762000000     0.334000000
H    -1.254000000     4.474000000    -0.692000000
O     1.132000000     4.703000000    -1.572000000
H     1.136000000     3.238000000    -0.262000000
C     4.120000000     2.947000000    -1.054000000
C     3.805000000     3.656000000    -2.314000000
H     4.549000000     3.676000000    -3.113000000
H     3.801000000     4.717000000    -2.057000000
C     2.493000000     3.212000000    -2.941000000
C     1.262000000     3.701000000    -2.503000000
C     0.101000000     3.244000000    -3.102000000
H    -0.862000000     3.631000000    -2.779000000
C     0.122000000     2.237000000    -4.090000000
O    -1.127000000     1.789000000    -4.651000000
C    -1.621000000     0.446000000    -4.345000000
H    -1.286000000     0.182000000    -3.331000000
C    -3.140000000     0.415000000    -4.255000000
C    -3.878000000    -0.692000000    -4.715000000
H    -3.429000000    -1.514000000    -5.266000000
C    -3.746000000     1.349000000    -3.407000000
H    -3.115000000     2.150000000    -3.029000000
C    -5.112000000     1.241000000    -3.033000000
O    -5.659000000     2.175000000    -2.143000000
C    -5.852000000     0.123000000    -3.462000000
H    -6.894000000     0.045000000    -3.163000000
C    -5.230000000    -0.750000000    -4.321000000
O    -5.865000000    -1.897000000    -4.598000000
C    -5.507000000    -3.178000000    -4.144000000
C    -5.168000000    -3.327000000    -2.764000000
H    -5.331000000    -2.557000000    -2.015000000
C    -5.600000000    -4.280000000    -4.905000000
H    -5.948000000    -4.243000000    -5.934000000
C    -5.242000000    -5.521000000    -4.435000000
H    -5.215000000    -6.403000000    -5.070000000
C    -4.850000000    -5.679000000    -3.146000000
H    -4.518000000    -6.613000000    -2.702000000
C    -4.857000000    -4.590000000    -2.295000000
O    -4.550000000    -4.652000000    -0.965000000
C    -3.322000000    -4.654000000    -0.308000000
C    -3.201000000    -4.945000000     1.019000000
H    -4.050000000    -5.162000000     1.662000000
C    -2.025000000    -4.808000000     1.676000000
O    -2.087000000    -5.033000000     3.040000000
C    -1.002000000    -4.765000000     3.858000000
C    -0.989000000    -3.630000000     4.639000000
H    -1.893000000    -3.043000000     4.775000000
C     0.090000000    -5.543000000     3.821000000
H    -0.016000000    -6.398000000     3.158000000
C     1.260000000    -5.306000000     4.521000000
H     2.093000000    -6.001000000     4.457000000
C     1.339000000    -4.147000000     5.287000000
H     2.286000000    -3.869000000     5.741000000
C     0.250000000    -3.213000000     5.204000000
O     0.327000000    -1.992000000     5.851000000
C     1.099000000    -0.971000000     5.403000000
C     1.176000000     0.119000000     6.238000000
H     0.535000000     0.247000000     7.107000000
C     1.979000000     1.146000000     5.849000000
O     2.152000000     2.192000000     6.718000000
C     2.071000000     3.517000000     6.301000000
C     0.985000000     3.999000000     5.550000000
H     0.147000000     3.332000000     5.367000000
C     3.103000000     4.440000000     6.637000000
H     3.919000000     4.074000000     7.255000000
C     3.075000000     5.729000000     6.031000000
H     3.941000000     6.367000000     6.184000000
C     2.060000000     6.142000000     5.172000000
H     2.034000000     7.082000000     4.627000000
C     0.996000000     5.273000000     4.960000000
O    -0.171000000     5.642000000     4.281000000
C    -0.463000000     5.243000000     2.992000000
C    -1.762000000     5.384000000     2.550000000
H    -2.566000000     5.802000000     3.151000000
C    -2.111000000     5.019000000     1.252000000
O    -3.385000000     5.102000000     0.779000000
C    -4.114000000     4.001000000     0.577000000
C    -4.215000000     3.122000000     1.646000000
H    -3.710000000     3.322000000     2.588000000
C    -5.024000000     1.933000000     1.477000000
H    -5.139000000     1.185000000     2.257000000
C    -5.408000000     1.589000000     0.163000000
H    -5.918000000     0.650000000    -0.036000000
C    -5.142000000     2.447000000    -0.887000000
C    -4.564000000     3.667000000    -0.692000000
H    -4.366000000     4.266000000    -1.577000000
C    -1.820000000    -0.822000000     2.057000000
H    -1.455000000    -0.933000000     3.075000000
C    -0.778000000    -0.453000000     1.204000000
H     0.224000000    -0.367000000     1.615000000
C    -0.931000000    -0.383000000    -0.159000000
H    -0.118000000    -0.121000000    -0.815000000
C    -2.259000000    -0.584000000    -0.659000000
H    -2.428000000    -0.567000000    -1.732000000
C    -3.357000000    -0.952000000     0.127000000
H    -4.355000000    -1.165000000    -0.245000000
C    -3.114000000    -1.089000000     1.544000000
C    -4.208000000    -1.376000000     2.515000000
O    -5.372000000    -1.454000000     2.128000000
O    -4.083000000    -1.361000000     3.706000000
O    -6.199000000    -3.902000000     3.278000000
H    -6.787000000    -3.562000000     3.951000000
H    -5.577000000    -3.192000000     3.122000000
O    -8.415000000     3.023000000     0.864000000
H    -7.970000000     2.246000000     1.201000000
H    -8.257000000     3.000000000    -0.080000000
O    -9.071000000    -2.347000000    -1.465000000
H    -8.316000000    -2.712000000    -1.003000000
H    -9.612000000    -3.107000000    -1.679000000
O    -5.140000000     0.510000000     5.343000000
H    -4.593000000     0.103000000     6.014000000
H    -5.223000000    -0.159000000     4.663000000
O    -9.192000000    -2.202000000     3.841000000
H    -8.513000000    -2.586000000     4.396000000
H    -9.948000000    -2.105000000     4.420000000
O    -4.215000000    -3.157000000     5.544000000
H    -4.192000000    -2.446000000     4.904000000
H    -5.100000000    -3.513000000     5.475000000
O    -1.002000000     2.142000000     3.321000000
H    -1.216000000     1.583000000     2.575000000
H    -1.440000000     1.728000000     4.065000000
O    -7.224000000    -2.528000000     0.409000000
H    -6.915000000    -3.393000000     0.679000000
H    -6.609000000    -1.917000000     0.815000000
O    -3.807000000    -0.648000000     7.313000000
H    -3.724000000    -0.329000000     8.212000000
H    -3.961000000    -1.588000000     7.406000000
O    -2.662000000     2.651000000     6.858000000
H    -2.113000000     2.576000000     7.639000000
H    -2.310000000     1.997000000     6.254000000
O    -7.441000000    -5.255000000     0.476000000
H    -7.042000000    -5.972000000     0.968000000
H    -7.020000000    -5.291000000    -0.384000000
O    -4.057000000     4.194000000     4.820000000
H    -3.505000000     3.509000000     5.198000000
H    -4.847000000     3.734000000     4.535000000
O    -6.477000000     2.522000000     4.307000000
H    -5.912000000     1.887000000     4.748000000
H    -7.065000000     1.988000000     3.772000000
O    -9.957000000    -1.805000000     1.221000000
H    -9.352000000    -2.176000000     0.579000000
H    -9.597000000    -2.065000000     2.069000000
O    -2.376000000     0.510000000     5.323000000
H    -2.496000000     0.037000000     6.146000000
H    -3.063000000     0.171000000     4.748000000
O    -7.354000000     0.287000000     2.770000000
H    -8.193000000    -0.134000000     2.954000000
H    -6.754000000    -0.440000000     2.598000000
O    -7.202000000    -6.469000000     3.243000000
H    -6.687000000    -5.670000000     3.356000000
H    -8.110000000    -6.167000000     3.224000000
O    -7.110000000    -3.287000000     5.924000000
H    -7.676000000    -2.815000000     6.534000000
H    -7.163000000    -4.200000000     6.205000000
O    -2.868000000    -5.560000000     6.362000000
H    -1.940000000    -5.490000000     6.587000000
H    -3.080000000    -4.718000000     5.957000000
