215
-1452.49098
C     0.852000000    -4.652000000     1.260000000
H     1.829000000    -4.326000000     1.606000000
C     0.428000000    -4.442000000    -0.074000000
C    -0.827000000    -4.820000000    -0.443000000
H    -1.186000000    -4.681000000    -1.459000000
C     1.258000000    -3.655000000    -1.038000000
O     2.633000000    -3.692000000    -0.652000000
H     0.876000000    -2.631000000    -0.913000000
O     1.092000000    -4.102000000    -2.412000000
C     1.044000000    -3.141000000    -3.394000000
C    -0.216000000    -2.761000000    -3.790000000
H    -1.051000000    -3.362000000    -3.440000000
C    -0.369000000    -1.715000000    -4.629000000
O    -1.662000000    -1.368000000    -4.792000000
C     0.705000000    -0.871000000    -5.006000000
C     0.457000000     0.392000000    -5.662000000
H     1.275000000     0.747000000    -6.292000000
C     0.110000000     1.510000000    -4.739000000
C     1.102000000     2.441000000    -4.457000000
H     2.034000000     2.296000000    -4.997000000
H    -0.386000000     0.407000000    -6.356000000
C     1.999000000    -1.320000000    -4.685000000
H     2.902000000    -0.751000000    -4.893000000
C     2.107000000    -2.427000000    -3.856000000
C     3.504000000    -2.785000000    -3.250000000
H     4.259000000    -2.570000000    -4.009000000
H     3.587000000    -3.874000000    -3.221000000
C     3.798000000    -2.048000000    -2.003000000
C     4.525000000    -0.854000000    -2.028000000
H     5.079000000    -0.618000000    -2.933000000
C     3.314000000    -2.544000000    -0.808000000
C     3.454000000    -1.807000000     0.369000000
H     3.098000000    -2.145000000     1.339000000
C     4.126000000    -0.565000000     0.344000000
O     4.376000000     0.089000000     1.483000000
C     3.490000000     1.158000000     1.911000000
C     3.039000000     1.076000000     3.392000000
C     2.304000000     2.143000000     3.918000000
H     2.337000000     3.057000000     3.331000000
C     3.107000000    -0.142000000     4.030000000
H     3.583000000    -0.990000000     3.544000000
O     4.082000000     2.377000000     1.629000000
H     2.626000000     0.996000000     1.249000000
C     4.674000000    -0.108000000    -0.833000000
C     5.162000000     1.249000000    -0.811000000
H     5.791000000     1.315000000    -1.701000000
H     5.959000000     1.344000000    -0.070000000
C     4.167000000     2.331000000    -0.812000000
C     3.723000000     2.937000000    -2.010000000
H     4.125000000     2.656000000    -2.980000000
C     3.753000000     2.908000000     0.401000000
C     2.776000000     3.835000000     0.388000000
H     2.521000000     4.311000000     1.332000000
C     2.192000000     4.335000000    -0.751000000
O     1.070000000     5.171000000    -0.562000000
C    -0.286000000     4.565000000    -0.864000000
C    -1.297000000     5.060000000     0.201000000
C    -0.865000000     5.865000000     1.310000000
H     0.120000000     6.304000000     1.444000000
C    -2.589000000     4.459000000     0.184000000
H    -2.769000000     3.680000000    -0.553000000
O    -0.635000000     4.856000000    -2.208000000
H    -0.371000000     3.483000000    -0.681000000
C     2.664000000     3.833000000    -1.990000000
C     2.055000000     4.413000000    -3.270000000
H     2.759000000     4.501000000    -4.100000000
H     1.805000000     5.468000000    -3.140000000
C     0.858000000     3.573000000    -3.702000000
C    -0.396000000     3.779000000    -3.079000000
C    -1.396000000     2.915000000    -3.400000000
H    -2.346000000     2.934000000    -2.872000000
C    -1.159000000     1.716000000    -4.163000000
O    -2.262000000     0.845000000    -4.400000000
C    -2.168000000    -0.498000000    -3.794000000
H    -1.415000000    -0.392000000    -3.000000000
C    -3.489000000    -1.009000000    -3.218000000
C    -3.891000000    -2.296000000    -3.510000000
H    -3.448000000    -2.886000000    -4.308000000
C    -4.277000000    -0.173000000    -2.393000000
H    -4.054000000     0.858000000    -2.130000000
C    -5.426000000    -0.638000000    -1.777000000
O    -6.199000000     0.139000000    -0.976000000
C    -5.890000000    -1.954000000    -2.091000000
H    -6.843000000    -2.317000000    -1.716000000
C    -5.095000000    -2.793000000    -2.915000000
O    -5.538000000    -3.978000000    -3.279000000
C    -4.946000000    -5.066000000    -2.688000000
C    -4.362000000    -4.972000000    -1.414000000
H    -4.585000000    -4.131000000    -0.763000000
C    -4.834000000    -6.194000000    -3.491000000
H    -5.143000000    -6.146000000    -4.532000000
C    -4.071000000    -7.291000000    -2.944000000
H    -3.904000000    -8.221000000    -3.482000000
C    -3.447000000    -7.225000000    -1.738000000
H    -2.904000000    -8.073000000    -1.328000000
C    -3.603000000    -6.043000000    -0.993000000
O    -2.929000000    -6.060000000     0.220000000
C    -1.656000000    -5.486000000     0.554000000
C    -1.259000000    -5.588000000     1.828000000
H    -1.940000000    -5.911000000     2.612000000
C    -0.017000000    -5.108000000     2.191000000
O     0.302000000    -5.198000000     3.482000000
C     1.358000000    -4.500000000     4.059000000
C     1.253000000    -3.296000000     4.698000000
H     0.307000000    -2.762000000     4.674000000
C     2.617000000    -5.101000000     4.067000000
H     2.711000000    -6.128000000     3.725000000
C     3.770000000    -4.494000000     4.643000000
H     4.706000000    -5.041000000     4.727000000
C     3.649000000    -3.295000000     5.292000000
H     4.507000000    -2.784000000     5.720000000
C     2.379000000    -2.710000000     5.284000000
O     2.293000000    -1.469000000     5.898000000
C     2.428000000    -0.233000000     5.257000000
C     1.829000000     0.888000000     5.853000000
H     1.444000000     0.777000000     6.863000000
C     1.737000000     2.049000000     5.168000000
O     1.130000000     3.099000000     5.819000000
C     1.079000000     4.289000000     5.189000000
C    -0.189000000     4.737000000     4.577000000
H    -1.015000000     4.047000000     4.423000000
C     2.139000000     5.203000000     5.318000000
H     3.035000000     4.894000000     5.851000000
C     2.036000000     6.522000000     4.841000000
H     2.794000000     7.253000000     5.109000000
C     0.811000000     6.955000000     4.312000000
H     0.608000000     7.965000000     3.966000000
C    -0.239000000     6.079000000     4.208000000
O    -1.363000000     6.517000000     3.541000000
C    -1.739000000     5.916000000     2.394000000
C    -3.034000000     5.415000000     2.303000000
H    -3.679000000     5.536000000     3.170000000
C    -3.386000000     4.602000000     1.252000000
O    -4.640000000     4.104000000     1.251000000
C    -4.874000000     2.711000000     1.296000000
C    -4.331000000     1.985000000     2.385000000
H    -3.729000000     2.499000000     3.130000000
C    -4.480000000     0.554000000     2.358000000
H    -4.038000000     0.015000000     3.192000000
C    -5.096000000    -0.016000000     1.266000000
H    -5.220000000    -1.096000000     1.257000000
C    -5.603000000     0.696000000     0.150000000
C    -5.461000000     2.072000000     0.196000000
H    -5.902000000     2.648000000    -0.613000000
C    -0.673000000    -0.428000000     1.780000000
H    -0.280000000     0.073000000     2.661000000
C    -0.213000000    -0.170000000     0.491000000
H     0.556000000     0.591000000     0.387000000
C    -0.661000000    -0.905000000    -0.618000000
H    -0.266000000    -0.778000000    -1.558000000
C    -1.738000000    -1.771000000    -0.440000000
H    -2.078000000    -2.349000000    -1.296000000
C    -2.204000000    -2.012000000     0.833000000
H    -2.926000000    -2.813000000     0.969000000
C    -1.658000000    -1.450000000     1.983000000
C    -2.020000000    -1.840000000     3.368000000
O    -2.867000000    -2.684000000     3.504000000
O    -1.682000000    -1.194000000     4.326000000
O    -5.071000000    -6.113000000     5.829000000
H    -4.130000000    -5.993000000     5.696000000
H    -5.213000000    -5.891000000     6.749000000
O    -2.266000000    -5.697000000     7.755000000
H    -2.532000000    -5.340000000     6.907000000
H    -2.414000000    -6.639000000     7.675000000
O    -7.444000000    -5.169000000     4.312000000
H    -6.931000000    -4.995000000     3.523000000
H    -6.809000000    -5.515000000     4.939000000
O    -4.709000000    -6.335000000     2.420000000
H    -4.803000000    -6.517000000     1.485000000
H    -3.798000000    -6.553000000     2.616000000
O    -7.424000000     1.116000000     3.704000000
H    -6.994000000     0.451000000     4.242000000
H    -7.213000000     1.944000000     4.134000000
O    -8.870000000    -1.701000000     2.868000000
H    -8.204000000    -1.519000000     3.531000000
H    -8.783000000    -2.638000000     2.692000000
O    -1.030000000    -1.346000000     6.841000000
H    -1.069000000    -0.416000000     7.063000000
H    -1.302000000    -1.385000000     5.924000000
O     0.405000000    -3.456000000     7.737000000
H     0.129000000    -2.642000000     7.317000000
H    -0.380000000    -4.004000000     7.737000000
O    -1.342000000    -0.971000000     9.785000000
H    -1.744000000    -0.121000000     9.606000000
H    -1.238000000    -1.374000000     8.923000000
O    -5.542000000     1.554000000     5.799000000
H    -4.721000000     2.047000000     5.785000000
H    -5.280000000     0.661000000     6.023000000
O    -3.329000000     3.308000000     5.556000000
H    -2.952000000     3.437000000     6.427000000
H    -2.653000000     2.837000000     5.070000000
O    -6.194000000    -1.579000000     4.652000000
H    -5.933000000    -2.385000000     4.206000000
H    -5.424000000    -1.328000000     5.161000000
O    -3.908000000    -1.073000000     5.908000000
H    -3.502000000    -1.041000000     6.774000000
H    -3.205000000    -1.355000000     5.324000000
O    -2.348000000    -7.402000000     4.499000000
H    -2.458000000    -8.046000000     3.800000000
H    -2.071000000    -7.916000000     5.257000000
O    -5.195000000    -3.537000000     3.087000000
H    -4.975000000    -4.468000000     3.127000000
H    -4.357000000    -3.088000000     3.199000000
O    -1.718000000     1.580000000     4.618000000
H    -1.725000000     0.696000000     4.252000000
H    -1.389000000     1.467000000     5.510000000
O    -0.962000000     1.490000000     7.247000000
H    -1.560000000     1.553000000     7.992000000
H    -0.563000000     2.358000000     7.186000000
O    -2.626000000    -4.649000000     5.269000000
H    -1.967000000    -5.274000000     4.967000000
H    -2.663000000    -3.988000000     4.577000000
O    -5.765000000    -3.039000000     7.680000000
H    -6.129000000    -3.506000000     6.928000000
H    -4.891000000    -2.774000000     7.396000000
