215
-1444.92627
C     0.556000000    -5.331000000    -0.094000000
H     1.608000000    -5.199000000     0.143000000
C     0.096000000    -4.872000000    -1.331000000
C    -1.247000000    -4.989000000    -1.688000000
H    -1.620000000    -4.510000000    -2.590000000
C     0.984000000    -3.842000000    -2.134000000
O     2.446000000    -3.992000000    -1.980000000
H     0.665000000    -2.949000000    -1.576000000
O     0.588000000    -3.708000000    -3.542000000
C     0.432000000    -2.460000000    -4.112000000
C    -0.865000000    -1.951000000    -4.208000000
H    -1.671000000    -2.633000000    -3.950000000
C    -1.037000000    -0.639000000    -4.667000000
O    -2.291000000    -0.061000000    -4.652000000
C     0.030000000     0.144000000    -5.112000000
C    -0.091000000     1.600000000    -5.609000000
H     0.755000000     1.895000000    -6.233000000
C    -0.063000000     2.583000000    -4.418000000
C     1.095000000     3.227000000    -3.954000000
H     2.001000000     3.176000000    -4.551000000
H    -0.971000000     1.748000000    -6.238000000
C     1.307000000    -0.393000000    -4.933000000
H     2.131000000     0.308000000    -5.040000000
C     1.559000000    -1.631000000    -4.346000000
C     2.994000000    -2.123000000    -4.122000000
H     3.684000000    -1.592000000    -4.782000000
H     3.096000000    -3.169000000    -4.419000000
C     3.434000000    -1.928000000    -2.737000000
C     4.145000000    -0.734000000    -2.544000000
H     4.257000000     0.026000000    -3.313000000
C     3.180000000    -2.851000000    -1.712000000
C     3.557000000    -2.507000000    -0.447000000
H     3.279000000    -3.149000000     0.385000000
C     4.283000000    -1.329000000    -0.262000000
O     4.446000000    -0.984000000     1.055000000
C     3.647000000     0.059000000     1.623000000
C     3.110000000    -0.198000000     3.012000000
C     3.046000000     0.786000000     3.979000000
H     3.582000000     1.720000000     3.826000000
C     2.500000000    -1.398000000     3.242000000
H     2.566000000    -2.210000000     2.523000000
O     4.341000000     1.317000000     1.593000000
H     2.739000000     0.102000000     1.004000000
C     4.552000000    -0.396000000    -1.234000000
C     5.336000000     0.924000000    -1.114000000
H     5.800000000     1.082000000    -2.090000000
H     6.103000000     0.738000000    -0.360000000
C     4.461000000     2.085000000    -0.726000000
C     4.054000000     2.962000000    -1.665000000
H     4.415000000     2.726000000    -2.663000000
C     4.049000000     2.256000000     0.593000000
C     3.192000000     3.274000000     0.918000000
H     2.848000000     3.409000000     1.940000000
C     2.730000000     4.134000000    -0.050000000
O     1.742000000     5.040000000     0.397000000
C     0.398000000     4.567000000     0.280000000
C    -0.479000000     4.913000000     1.481000000
C     0.096000000     5.222000000     2.701000000
H     1.180000000     5.231000000     2.781000000
C    -1.897000000     4.907000000     1.387000000
H    -2.390000000     4.748000000     0.431000000
O    -0.143000000     5.001000000    -0.992000000
H     0.457000000     3.468000000     0.282000000
C     3.131000000     3.996000000    -1.374000000
C     2.461000000     4.805000000    -2.497000000
H     3.179000000     5.023000000    -3.291000000
H     2.171000000     5.834000000    -2.273000000
C     1.177000000     4.110000000    -2.887000000
C     0.039000000     4.199000000    -2.081000000
C    -1.125000000     3.581000000    -2.540000000
H    -2.067000000     3.654000000    -2.002000000
C    -1.218000000     2.795000000    -3.608000000
O    -2.385000000     2.072000000    -3.688000000
C    -2.558000000     0.658000000    -3.447000000
H    -1.805000000     0.337000000    -2.712000000
C    -3.916000000     0.278000000    -2.849000000
C    -4.569000000    -0.809000000    -3.282000000
H    -4.215000000    -1.440000000    -4.095000000
C    -4.439000000     1.015000000    -1.836000000
H    -3.909000000     1.907000000    -1.509000000
C    -5.694000000     0.635000000    -1.263000000
O    -6.125000000     1.378000000    -0.138000000
C    -6.364000000    -0.468000000    -1.716000000
H    -7.312000000    -0.765000000    -1.276000000
C    -5.771000000    -1.239000000    -2.706000000
O    -6.350000000    -2.391000000    -3.043000000
C    -5.767000000    -3.612000000    -3.023000000
C    -5.022000000    -4.035000000    -1.951000000
H    -5.020000000    -3.476000000    -1.019000000
C    -5.667000000    -4.316000000    -4.214000000
H    -6.175000000    -3.861000000    -5.061000000
C    -4.830000000    -5.431000000    -4.342000000
H    -4.864000000    -6.042000000    -5.240000000
C    -4.203000000    -5.883000000    -3.213000000
H    -3.632000000    -6.807000000    -3.168000000
C    -4.201000000    -5.150000000    -2.060000000
O    -3.563000000    -5.624000000    -0.937000000
C    -2.171000000    -5.539000000    -0.750000000
C    -1.667000000    -6.002000000     0.412000000
H    -2.404000000    -6.447000000     1.076000000
C    -0.350000000    -5.964000000     0.776000000
O     0.142000000    -6.638000000     1.914000000
C     0.871000000    -6.050000000     2.860000000
C     0.708000000    -4.746000000     3.189000000
H    -0.086000000    -4.119000000     2.793000000
C     1.856000000    -6.807000000     3.417000000
H     1.999000000    -7.867000000     3.226000000
C     2.617000000    -6.198000000     4.374000000
H     3.403000000    -6.796000000     4.827000000
C     2.455000000    -4.871000000     4.704000000
H     3.009000000    -4.464000000     5.547000000
C     1.488000000    -4.114000000     4.101000000
O     1.159000000    -2.777000000     4.590000000
C     1.804000000    -1.633000000     4.389000000
C     1.679000000    -0.610000000     5.354000000
H     1.079000000    -0.726000000     6.254000000
C     2.362000000     0.611000000     5.140000000
O     2.331000000     1.546000000     6.213000000
C     2.250000000     2.901000000     5.948000000
C     1.095000000     3.542000000     5.560000000
H     0.202000000     2.977000000     5.305000000
C     3.336000000     3.715000000     6.369000000
H     4.222000000     3.194000000     6.721000000
C     3.280000000     5.113000000     6.381000000
H     4.174000000     5.698000000     6.579000000
C     2.192000000     5.699000000     5.889000000
H     2.027000000     6.773000000     5.856000000
C     1.059000000     4.956000000     5.496000000
O    -0.129000000     5.598000000     5.052000000
C    -0.680000000     5.388000000     3.859000000
C    -2.026000000     5.274000000     3.801000000
H    -2.668000000     5.230000000     4.678000000
C    -2.646000000     5.052000000     2.532000000
O    -3.970000000     4.639000000     2.510000000
C    -4.171000000     3.290000000     2.286000000
C    -3.471000000     2.260000000     2.927000000
H    -2.695000000     2.398000000     3.676000000
C    -3.722000000     0.962000000     2.526000000
H    -3.196000000     0.206000000     3.105000000
C    -4.565000000     0.635000000     1.523000000
H    -4.619000000    -0.395000000     1.182000000
C    -5.183000000     1.666000000     0.823000000
C    -5.047000000     2.963000000     1.259000000
H    -5.480000000     3.836000000     0.776000000
C    -0.385000000     0.430000000     2.391000000
H    -0.277000000     0.621000000     3.456000000
C     0.197000000     1.257000000     1.452000000
H     0.688000000     2.130000000     1.873000000
C     0.201000000     0.950000000     0.113000000
H     0.669000000     1.620000000    -0.617000000
C    -0.423000000    -0.240000000    -0.300000000
H    -0.342000000    -0.565000000    -1.334000000
C    -0.828000000    -1.158000000     0.664000000
H    -1.185000000    -2.132000000     0.338000000
C    -0.970000000    -0.783000000     1.987000000
C    -1.543000000    -1.779000000     2.974000000
O    -2.109000000    -2.786000000     2.574000000
O    -1.649000000    -1.448000000     4.163000000
O    -3.877000000    -5.486000000     6.196000000
H    -3.781000000    -6.248000000     6.767000000
H    -3.134000000    -4.925000000     6.419000000
O    -7.037000000    -4.577000000     3.105000000
H    -6.358000000    -3.937000000     2.894000000
H    -7.843000000    -4.193000000     2.760000000
O    -5.578000000    -6.558000000     4.356000000
H    -4.717000000    -6.243000000     4.629000000
H    -5.995000000    -5.796000000     3.952000000
O    -0.316000000     1.508000000     8.464000000
H     0.437000000     1.054000000     8.844000000
H    -0.509000000     1.022000000     7.662000000
O    -4.156000000    -1.941000000     5.245000000
H    -3.862000000    -1.828000000     6.149000000
H    -3.391000000    -1.717000000     4.714000000
O    -2.547000000     2.570000000     6.923000000
H    -1.882000000     3.051000000     7.417000000
H    -2.127000000     1.738000000     6.706000000
O    -1.523000000    -0.107000000     6.502000000
H    -1.586000000    -0.432000000     5.604000000
H    -2.072000000    -0.703000000     7.012000000
O    -6.304000000     1.127000000     6.010000000
H    -6.909000000     0.444000000     6.298000000
H    -5.476000000     0.910000000     6.439000000
O    -6.651000000    -1.449000000     7.155000000
H    -6.918000000    -1.648000000     8.052000000
H    -6.029000000    -2.141000000     6.931000000
O    -3.748000000    -1.454000000     8.035000000
H    -3.753000000    -1.716000000     8.955000000
H    -4.329000000    -0.694000000     7.999000000
O    -0.813000000    -2.898000000     8.569000000
H    -1.523000000    -2.389000000     8.961000000
H    -1.234000000    -3.391000000     7.864000000
O     4.583000000    -4.749000000     2.283000000
H     4.778000000    -5.534000000     2.794000000
H     3.635000000    -4.775000000     2.156000000
O    -7.614000000     0.251000000     3.330000000
H    -6.812000000     0.391000000     3.834000000
H    -8.091000000    -0.419000000     3.821000000
O    -1.699000000    -3.725000000     5.796000000
H    -0.793000000    -4.035000000     5.824000000
H    -1.719000000    -3.111000000     5.062000000
O    -2.377000000    -7.993000000     3.354000000
H    -2.494000000    -7.047000000     3.265000000
H    -2.803000000    -8.361000000     2.580000000
O    -4.827000000    -2.712000000     2.614000000
H    -3.978000000    -2.922000000     2.225000000
H    -4.620000000    -2.426000000     3.503000000
O    -7.116000000    -2.637000000     0.598000000
H    -6.386000000    -2.422000000     1.179000000
H    -7.898000000    -2.460000000     1.121000000
O    -2.539000000    -5.228000000     3.449000000
H    -2.316000000    -4.385000000     3.053000000
H    -2.877000000    -5.003000000     4.316000000
O    -5.684000000    -6.382000000     0.717000000
H    -5.553000000    -6.139000000    -0.199000000
H    -5.502000000    -5.580000000     1.206000000
