215
-1438.88866
C     0.253000000    -4.672000000     0.191000000
H     1.050000000    -4.100000000     0.660000000
C    -0.005000000    -4.385000000    -1.136000000
C    -0.966000000    -5.074000000    -1.846000000
H    -1.131000000    -4.957000000    -2.914000000
C     0.927000000    -3.405000000    -1.893000000
O     2.318000000    -3.528000000    -1.584000000
H     0.594000000    -2.389000000    -1.634000000
O     0.703000000    -3.513000000    -3.304000000
C     0.594000000    -2.318000000    -3.966000000
C    -0.696000000    -1.820000000    -4.182000000
H    -1.472000000    -2.581000000    -4.170000000
C    -0.909000000    -0.555000000    -4.687000000
O    -2.171000000    -0.106000000    -4.662000000
C     0.209000000     0.266000000    -4.931000000
C    -0.061000000     1.725000000    -5.398000000
H     0.716000000     2.072000000    -6.082000000
C    -0.208000000     2.724000000    -4.282000000
C     0.907000000     3.487000000    -3.887000000
H     1.850000000     3.445000000    -4.427000000
H    -1.029000000     1.759000000    -5.902000000
C     1.456000000    -0.258000000    -4.728000000
H     2.325000000     0.331000000    -5.010000000
C     1.673000000    -1.538000000    -4.245000000
C     3.077000000    -2.051000000    -3.989000000
H     3.730000000    -1.665000000    -4.775000000
H     3.082000000    -3.126000000    -4.177000000
C     3.606000000    -1.696000000    -2.602000000
C     4.323000000    -0.567000000    -2.432000000
H     4.448000000     0.182000000    -3.209000000
C     3.223000000    -2.481000000    -1.481000000
C     3.690000000    -2.177000000    -0.250000000
H     3.402000000    -2.813000000     0.584000000
C     4.390000000    -0.993000000    -0.041000000
O     4.702000000    -0.640000000     1.251000000
C     3.892000000     0.322000000     1.952000000
C     3.298000000    -0.093000000     3.266000000
C     2.830000000     0.909000000     4.164000000
H     2.923000000     1.977000000     3.980000000
C     3.213000000    -1.476000000     3.646000000
H     3.574000000    -2.215000000     2.935000000
O     4.438000000     1.651000000     1.867000000
H     3.023000000     0.336000000     1.278000000
C     4.659000000    -0.225000000    -1.121000000
C     5.347000000     1.087000000    -0.952000000
H     5.820000000     1.492000000    -1.849000000
H     6.098000000     0.946000000    -0.172000000
C     4.374000000     2.152000000    -0.611000000
C     3.767000000     2.986000000    -1.584000000
H     3.822000000     2.833000000    -2.659000000
C     4.034000000     2.392000000     0.700000000
C     3.170000000     3.371000000     1.099000000
H     2.930000000     3.531000000     2.147000000
C     2.652000000     4.180000000     0.151000000
O     1.635000000     5.067000000     0.430000000
C     0.265000000     4.547000000     0.263000000
C    -0.539000000     4.785000000     1.482000000
C    -0.006000000     5.144000000     2.744000000
H     1.054000000     5.321000000     2.909000000
C    -1.914000000     4.574000000     1.405000000
H    -2.368000000     4.166000000     0.506000000
O    -0.317000000     5.199000000    -0.925000000
H     0.205000000     3.449000000     0.213000000
C     2.919000000     3.996000000    -1.202000000
C     2.194000000     4.858000000    -2.261000000
H     2.853000000     4.919000000    -3.129000000
H     2.111000000     5.896000000    -1.931000000
C     0.892000000     4.315000000    -2.765000000
C    -0.321000000     4.419000000    -2.060000000
C    -1.420000000     3.734000000    -2.480000000
H    -2.295000000     3.903000000    -1.857000000
C    -1.362000000     2.861000000    -3.523000000
O    -2.580000000     2.131000000    -3.829000000
C    -2.633000000     0.736000000    -3.556000000
H    -1.895000000     0.512000000    -2.771000000
C    -3.928000000     0.236000000    -2.897000000
C    -4.410000000    -0.992000000    -3.332000000
H    -3.896000000    -1.586000000    -4.084000000
C    -4.544000000     0.959000000    -1.904000000
H    -4.079000000     1.905000000    -1.637000000
C    -5.799000000     0.539000000    -1.490000000
O    -6.443000000     1.206000000    -0.479000000
C    -6.335000000    -0.653000000    -1.951000000
H    -7.175000000    -1.087000000    -1.414000000
C    -5.571000000    -1.520000000    -2.772000000
O    -5.993000000    -2.877000000    -2.890000000
C    -5.198000000    -3.976000000    -3.255000000
C    -4.340000000    -4.594000000    -2.391000000
H    -4.327000000    -4.221000000    -1.371000000
C    -5.268000000    -4.399000000    -4.590000000
H    -6.057000000    -3.951000000    -5.189000000
C    -4.530000000    -5.469000000    -5.048000000
H    -4.583000000    -5.852000000    -6.064000000
C    -3.726000000    -6.119000000    -4.112000000
H    -3.172000000    -6.984000000    -4.467000000
C    -3.631000000    -5.683000000    -2.804000000
O    -2.969000000    -6.380000000    -1.866000000
C    -1.827000000    -5.982000000    -1.199000000
C    -1.527000000    -6.223000000     0.165000000
H    -2.247000000    -6.836000000     0.702000000
C    -0.489000000    -5.615000000     0.891000000
O    -0.365000000    -5.963000000     2.228000000
C     0.810000000    -5.717000000     2.966000000
C     0.935000000    -4.574000000     3.767000000
H     0.095000000    -3.895000000     3.890000000
C     1.921000000    -6.416000000     2.651000000
H     1.702000000    -7.268000000     2.012000000
C     3.173000000    -6.033000000     3.120000000
H     4.081000000    -6.522000000     2.776000000
C     3.335000000    -4.998000000     4.045000000
H     4.243000000    -4.715000000     4.571000000
C     2.192000000    -4.245000000     4.332000000
O     2.123000000    -3.124000000     5.168000000
C     2.452000000    -1.798000000     4.799000000
C     1.897000000    -0.797000000     5.585000000
H     1.367000000    -0.991000000     6.514000000
C     2.146000000     0.558000000     5.312000000
O     1.663000000     1.442000000     6.113000000
C     1.759000000     2.835000000     6.074000000
C     0.753000000     3.562000000     5.462000000
H    -0.076000000     2.983000000     5.064000000
C     2.800000000     3.458000000     6.816000000
H     3.666000000     2.879000000     7.125000000
C     2.782000000     4.887000000     7.047000000
H     3.603000000     5.350000000     7.589000000
C     1.725000000     5.642000000     6.422000000
H     1.841000000     6.714000000     6.559000000
C     0.741000000     4.943000000     5.649000000
O    -0.305000000     5.695000000     5.097000000
C    -0.831000000     5.287000000     3.860000000
C    -2.179000000     5.024000000     3.809000000
H    -2.810000000     5.067000000     4.692000000
C    -2.760000000     4.599000000     2.527000000
O    -4.081000000     4.335000000     2.244000000
C    -4.394000000     3.001000000     2.003000000
C    -3.972000000     1.875000000     2.749000000
H    -3.397000000     2.043000000     3.656000000
C    -4.336000000     0.581000000     2.539000000
H    -3.964000000    -0.240000000     3.147000000
C    -5.233000000     0.365000000     1.460000000
H    -5.559000000    -0.650000000     1.248000000
C    -5.668000000     1.445000000     0.662000000
C    -5.192000000     2.680000000     0.916000000
H    -5.575000000     3.576000000     0.434000000
C    -0.679000000    -0.074000000     2.566000000
H    -0.482000000     0.160000000     3.609000000
C    -0.018000000     0.683000000     1.522000000
H     0.738000000     1.443000000     1.700000000
C    -0.423000000     0.459000000     0.172000000
H    -0.178000000     1.110000000    -0.656000000
C    -1.370000000    -0.516000000    -0.106000000
H    -1.576000000    -0.775000000    -1.141000000
C    -1.870000000    -1.299000000     0.939000000
H    -2.444000000    -2.207000000     0.768000000
C    -1.582000000    -1.091000000     2.279000000
C    -2.214000000    -2.027000000     3.343000000
O    -2.941000000    -2.959000000     3.046000000
O    -1.931000000    -1.863000000     4.474000000
O    -2.013000000    -6.125000000     6.416000000
H    -2.748000000    -6.585000000     6.822000000
H    -1.849000000    -6.605000000     5.604000000
O    -0.575000000     1.693000000     8.245000000
H    -1.024000000     1.032000000     7.718000000
H    -0.286000000     2.349000000     7.610000000
O    -4.608000000    -7.572000000     4.401000000
H    -5.149000000    -7.564000000     3.612000000
H    -3.948000000    -6.897000000     4.246000000
O    -5.087000000    -3.542000000     4.758000000
H    -4.640000000    -4.103000000     5.392000000
H    -4.388000000    -3.023000000     4.362000000
O    -7.573000000    -0.432000000     4.152000000
H    -7.334000000    -0.969000000     4.908000000
H    -8.411000000    -0.791000000     3.860000000
O    -1.314000000    -0.448000000     6.579000000
H    -2.046000000     0.164000000     6.506000000
H    -1.329000000    -0.940000000     5.758000000
O    -4.481000000    -2.592000000     8.670000000
H    -3.776000000    -2.836000000     8.072000000
H    -4.751000000    -3.418000000     9.072000000
O    -6.654000000     2.017000000     4.249000000
H    -7.148000000     1.199000000     4.307000000
H    -6.141000000     1.930000000     3.446000000
O    -0.755000000    -2.231000000     8.417000000
H    -0.811000000    -1.382000000     7.977000000
H    -1.108000000    -2.854000000     7.782000000
O    -7.713000000    -4.418000000     3.303000000
H    -8.582000000    -4.211000000     2.959000000
H    -7.316000000    -3.564000000     3.477000000
O    -3.298000000    -0.250000000     9.914000000
H    -2.886000000    -0.895000000    10.489000000
H    -3.447000000    -0.721000000     9.094000000
O    -6.321000000    -1.707000000     6.404000000
H    -6.521000000    -2.327000000     7.105000000
H    -5.794000000    -2.210000000     5.783000000
O     1.749000000    -3.125000000     8.994000000
H     1.799000000    -3.860000000     8.383000000
H     0.867000000    -2.773000000     8.875000000
O    -2.735000000    -3.413000000     6.530000000
H    -2.444000000    -4.263000000     6.200000000
H    -2.458000000    -2.788000000     5.860000000
O    -4.885000000    -4.106000000     1.440000000
H    -5.580000000    -4.109000000     2.098000000
H    -4.115000000    -3.780000000     1.906000000
O    -3.182000000     2.077000000     6.418000000
H    -3.599000000     2.653000000     5.778000000
H    -3.909000000     1.719000000     6.928000000
O    -5.353000000     0.957000000     7.844000000
H    -5.685000000     0.674000000     8.696000000
H    -5.433000000     0.182000000     7.287000000
O    -2.586000000    -5.725000000     3.489000000
H    -2.768000000    -4.791000000     3.387000000
H    -1.828000000    -5.884000000     2.927000000
O    -4.729000000    -6.932000000     1.124000000
H    -4.721000000    -6.017000000     1.407000000
H    -5.000000000    -6.896000000     0.207000000
