215
-1447.96954
C    -1.062000000    -0.238000000    -5.233000000
H    -1.460000000    -1.214000000    -4.967000000
C     0.272000000     0.047000000    -4.991000000
C     0.828000000     1.231000000    -5.415000000
H     1.877000000     1.424000000    -5.206000000
C     1.036000000    -0.979000000    -4.135000000
O     0.583000000    -2.359000000    -4.382000000
H     0.968000000    -0.714000000    -3.069000000
O     2.434000000    -0.953000000    -4.450000000
C     3.298000000    -1.071000000    -3.361000000
C     3.752000000     0.094000000    -2.862000000
H     3.374000000     1.006000000    -3.318000000
C     4.412000000     0.153000000    -1.638000000
O     4.595000000     1.393000000    -1.168000000
C     4.796000000    -1.040000000    -0.990000000
C     5.430000000    -1.046000000     0.334000000
H     6.026000000    -1.944000000     0.510000000
C     4.470000000    -0.840000000     1.540000000
C     4.029000000    -1.910000000     2.285000000
H     4.272000000    -2.944000000     2.056000000
H     6.193000000    -0.268000000     0.277000000
C     4.294000000    -2.291000000    -1.453000000
H     4.474000000    -3.190000000    -0.869000000
C     3.526000000    -2.231000000    -2.635000000
C     2.901000000    -3.524000000    -3.080000000
H     3.519000000    -4.316000000    -2.653000000
H     2.851000000    -3.685000000    -4.159000000
C     1.490000000    -3.700000000    -2.546000000
C     1.299000000    -4.446000000    -1.447000000
H     2.157000000    -4.804000000    -0.885000000
C     0.437000000    -3.157000000    -3.250000000
C    -0.885000000    -3.321000000    -2.749000000
H    -1.693000000    -2.827000000    -3.283000000
C    -1.089000000    -4.116000000    -1.654000000
O    -2.410000000    -4.077000000    -1.137000000
C    -2.561000000    -3.319000000     0.052000000
C    -3.956000000    -2.636000000     0.000000000
C    -4.736000000    -2.466000000     1.112000000
H    -4.484000000    -3.060000000     1.986000000
C    -4.363000000    -2.063000000    -1.205000000
H    -3.882000000    -2.283000000    -2.154000000
O    -2.409000000    -4.128000000     1.250000000
H    -1.792000000    -2.536000000     0.129000000
C     0.044000000    -4.616000000    -0.924000000
C    -0.145000000    -5.492000000     0.320000000
H     0.523000000    -6.343000000     0.472000000
H    -1.148000000    -5.905000000     0.196000000
C    -0.125000000    -4.610000000     1.548000000
C     1.124000000    -4.188000000     2.126000000
H     2.047000000    -4.516000000     1.655000000
C    -1.276000000    -4.009000000     1.989000000
C    -1.222000000    -3.151000000     3.041000000
H    -2.112000000    -2.656000000     3.421000000
C    -0.040000000    -2.745000000     3.588000000
O    -0.063000000    -1.772000000     4.583000000
C     0.289000000    -0.493000000     4.126000000
C    -0.589000000     0.633000000     4.616000000
C    -1.939000000     0.355000000     4.877000000
H    -2.225000000    -0.685000000     4.747000000
C    -0.131000000     1.918000000     4.620000000
H     0.880000000     2.190000000     4.328000000
O     1.689000000    -0.279000000     4.587000000
H     0.412000000    -0.509000000     3.033000000
C     1.149000000    -3.375000000     3.302000000
C     2.439000000    -3.019000000     3.955000000
H     3.099000000    -3.854000000     3.710000000
H     2.372000000    -2.847000000     5.031000000
C     3.081000000    -1.770000000     3.303000000
C     2.690000000    -0.469000000     3.627000000
C     3.325000000     0.656000000     3.069000000
H     3.130000000     1.658000000     3.440000000
C     4.143000000     0.409000000     1.939000000
O     4.545000000     1.507000000     1.201000000
C     3.836000000     1.758000000    -0.039000000
H     2.855000000     1.259000000    -0.022000000
C     3.440000000     3.218000000    -0.133000000
C     3.014000000     3.688000000    -1.357000000
H     3.081000000     3.098000000    -2.268000000
C     3.339000000     3.936000000     1.089000000
H     3.691000000     3.581000000     2.055000000
C     2.688000000     5.159000000     1.038000000
O     2.564000000     5.908000000     2.183000000
C     2.332000000     5.757000000    -0.162000000
H     2.013000000     6.795000000    -0.114000000
C     2.501000000     5.045000000    -1.305000000
O     2.080000000     5.624000000    -2.526000000
C     2.272000000     5.225000000    -3.795000000
C     1.268000000     4.634000000    -4.468000000
H     0.251000000     4.724000000    -4.097000000
C     3.559000000     5.329000000    -4.307000000
H     4.255000000     5.983000000    -3.788000000
C     3.751000000     4.777000000    -5.620000000
H     4.691000000     4.779000000    -6.165000000
C     2.759000000     4.096000000    -6.239000000
H     2.961000000     3.584000000    -7.176000000
C     1.456000000     4.010000000    -5.707000000
O     0.462000000     3.416000000    -6.440000000
C     0.004000000     2.195000000    -6.052000000
C    -1.335000000     1.959000000    -6.218000000
H    -2.029000000     2.638000000    -6.707000000
C    -1.870000000     0.738000000    -5.812000000
O    -3.117000000     0.424000000    -6.258000000
C    -3.961000000    -0.395000000    -5.520000000
C    -4.554000000    -0.162000000    -4.284000000
H    -4.443000000     0.785000000    -3.761000000
C    -4.194000000    -1.646000000    -6.052000000
H    -3.679000000    -1.983000000    -6.948000000
C    -5.037000000    -2.586000000    -5.469000000
H    -5.317000000    -3.482000000    -6.015000000
C    -5.648000000    -2.289000000    -4.287000000
H    -6.360000000    -2.998000000    -3.871000000
C    -5.357000000    -1.102000000    -3.657000000
O    -6.010000000    -0.805000000    -2.475000000
C    -5.477000000    -1.223000000    -1.268000000
C    -6.196000000    -1.019000000    -0.073000000
H    -7.097000000    -0.413000000    -0.037000000
C    -5.890000000    -1.720000000     1.025000000
O    -6.702000000    -1.659000000     2.231000000
C    -6.122000000    -1.509000000     3.493000000
C    -5.386000000    -0.328000000     3.768000000
H    -5.179000000     0.445000000     3.032000000
C    -6.291000000    -2.468000000     4.480000000
H    -6.802000000    -3.399000000     4.248000000
C    -5.822000000    -2.262000000     5.782000000
H    -5.874000000    -3.000000000     6.579000000
C    -5.207000000    -1.048000000     6.107000000
H    -4.867000000    -0.843000000     7.118000000
C    -4.876000000    -0.148000000     5.080000000
O    -4.153000000     0.990000000     5.480000000
C    -2.825000000     1.322000000     5.224000000
C    -2.401000000     2.610000000     5.380000000
H    -2.994000000     3.476000000     5.659000000
C    -1.043000000     2.857000000     5.022000000
O    -0.605000000     4.194000000     5.222000000
C     0.640000000     4.616000000     4.983000000
C     1.605000000     4.765000000     5.970000000
H     1.316000000     4.434000000     6.964000000
C     2.900000000     5.234000000     5.706000000
H     3.582000000     5.301000000     6.550000000
C     3.230000000     5.503000000     4.370000000
H     4.219000000     5.749000000     3.992000000
C     2.227000000     5.443000000     3.410000000
C     0.905000000     4.978000000     3.681000000
H     0.191000000     4.821000000     2.876000000
C    -2.822000000     1.055000000     0.411000000
H    -3.817000000     0.985000000     0.843000000
C    -1.846000000     0.232000000     0.984000000
H    -2.009000000    -0.377000000     1.869000000
C    -0.615000000     0.190000000     0.294000000
H     0.194000000    -0.457000000     0.724000000
C    -0.335000000     0.936000000    -0.847000000
H     0.675000000     0.840000000    -1.236000000
C    -1.328000000     1.751000000    -1.378000000
H    -1.114000000     2.466000000    -2.169000000
C    -2.591000000     1.779000000    -0.808000000
C    -3.734000000     2.480000000    -1.419000000
O    -3.573000000     3.285000000    -2.302000000
O    -4.837000000     2.284000000    -0.996000000
O    -5.682000000     6.494000000    -5.075000000
H    -5.965000000     6.072000000    -4.264000000
H    -6.273000000     6.149000000    -5.744000000
O    -9.419000000     1.601000000     1.589000000
H    -8.673000000     1.937000000     1.093000000
H    -9.060000000     1.401000000     2.454000000
O    -8.460000000     3.291000000    -1.756000000
H    -9.145000000     3.667000000    -2.309000000
H    -8.296000000     2.427000000    -2.134000000
O    -3.192000000     8.024000000    -4.520000000
H    -3.958000000     7.554000000    -4.848000000
H    -3.272000000     7.976000000    -3.567000000
O    -7.956000000     3.173000000    -4.690000000
H    -7.863000000     2.392000000    -4.144000000
H    -8.893000000     3.226000000    -4.875000000
O    -3.533000000     5.390000000    -0.669000000
H    -3.592000000     4.673000000    -1.300000000
H    -2.625000000     5.368000000    -0.365000000
O    -7.462000000     5.643000000    -0.308000000
H    -6.664000000     5.493000000    -0.816000000
H    -8.144000000     5.178000000    -0.792000000
O    -0.573000000     6.553000000    -2.248000000
H     0.160000000     6.958000000    -1.783000000
H    -0.469000000     6.840000000    -3.155000000
O    -6.205000000     3.220000000     3.270000000
H    -5.631000000     3.976000000     3.152000000
H    -6.522000000     3.018000000     2.390000000
O    -2.274000000     7.259000000     1.735000000
H    -2.203000000     8.081000000     1.251000000
H    -1.706000000     6.652000000     1.261000000
O    -4.860000000     2.566000000    -6.859000000
H    -4.854000000     3.163000000    -6.110000000
H    -4.200000000     1.907000000    -6.644000000
O    -0.787000000     5.178000000     0.120000000
H    -0.701000000     5.642000000    -0.713000000
H    -0.474000000     4.293000000    -0.066000000
O    -3.767000000     4.123000000    -4.721000000
H    -3.812000000     3.667000000    -3.880000000
H    -3.098000000     4.795000000    -4.593000000
O    -6.195000000     4.780000000    -2.802000000
H    -6.849000000     4.098000000    -2.654000000
H    -5.358000000     4.355000000    -2.616000000
O    -6.718000000     2.437000000     0.659000000
H    -7.380000000     2.561000000    -0.022000000
H    -5.886000000     2.437000000     0.187000000
O    -2.992000000     5.487000000    -7.220000000
H    -3.443000000     4.780000000    -6.758000000
H    -3.680000000     5.920000000    -7.726000000
O    -8.325000000     0.655000000    -2.895000000
H    -8.592000000     0.495000000    -3.800000000
H    -7.562000000     0.091000000    -2.767000000
O    -4.025000000     8.089000000    -1.914000000
H    -3.368000000     8.605000000    -1.445000000
H    -4.042000000     7.249000000    -1.455000000
O    -5.031000000     6.067000000     1.758000000
H    -4.823000000     5.717000000     0.892000000
H    -4.267000000     6.593000000     1.994000000
