215
-1436.15609
C    -0.077000000    -5.194000000     0.301000000
H     0.956000000    -5.327000000     0.613000000
C    -0.359000000    -4.467000000    -0.855000000
C    -1.710000000    -4.268000000    -1.152000000
H    -1.852000000    -3.631000000    -2.021000000
C     0.621000000    -3.783000000    -1.776000000
O     1.886000000    -4.414000000    -1.618000000
H     0.656000000    -2.753000000    -1.391000000
O     0.387000000    -3.773000000    -3.212000000
C     0.446000000    -2.580000000    -3.928000000
C    -0.733000000    -1.863000000    -4.013000000
H    -1.665000000    -2.211000000    -3.574000000
C    -0.700000000    -0.627000000    -4.662000000
O    -1.817000000     0.118000000    -4.767000000
C     0.536000000    -0.046000000    -5.132000000
C     0.625000000     1.397000000    -5.681000000
H     1.548000000     1.546000000    -6.246000000
C     0.583000000     2.432000000    -4.552000000
C     1.850000000     2.814000000    -3.992000000
H     2.768000000     2.404000000    -4.402000000
H    -0.194000000     1.663000000    -6.354000000
C     1.724000000    -0.777000000    -4.833000000
H     2.675000000    -0.378000000    -5.175000000
C     1.679000000    -2.025000000    -4.166000000
C     2.982000000    -2.832000000    -3.876000000
H     3.755000000    -2.546000000    -4.591000000
H     2.978000000    -3.915000000    -4.021000000
C     3.456000000    -2.698000000    -2.456000000
C     4.336000000    -1.605000000    -2.198000000
H     4.838000000    -1.027000000    -2.969000000
C     2.909000000    -3.494000000    -1.413000000
C     3.311000000    -3.191000000    -0.066000000
H     2.979000000    -3.811000000     0.762000000
C     4.102000000    -2.022000000     0.179000000
O     4.272000000    -1.657000000     1.516000000
C     3.512000000    -0.567000000     1.981000000
C     2.894000000    -0.800000000     3.392000000
C     2.361000000     0.288000000     4.105000000
H     2.528000000     1.291000000     3.720000000
C     2.673000000    -2.089000000     3.921000000
H     2.977000000    -3.018000000     3.446000000
O     4.395000000     0.624000000     1.904000000
H     2.719000000    -0.484000000     1.224000000
C     4.671000000    -1.272000000    -0.838000000
C     5.505000000    -0.053000000    -0.651000000
H     6.267000000     0.107000000    -1.417000000
H     6.101000000    -0.340000000     0.217000000
C     4.707000000     1.233000000    -0.370000000
C     4.281000000     2.012000000    -1.479000000
H     4.552000000     1.728000000    -2.492000000
C     4.134000000     1.477000000     0.901000000
C     3.433000000     2.615000000     1.099000000
H     3.162000000     2.925000000     2.105000000
C     3.170000000     3.479000000     0.050000000
O     2.414000000     4.572000000     0.266000000
C     0.979000000     4.316000000     0.117000000
C     0.049000000     4.815000000     1.289000000
C     0.583000000     5.204000000     2.541000000
H     1.645000000     5.195000000     2.773000000
C    -1.286000000     5.091000000     1.011000000
H    -1.676000000     4.867000000     0.021000000
O     0.660000000     4.939000000    -1.190000000
H     0.724000000     3.261000000    -0.064000000
C     3.589000000     3.191000000    -1.270000000
C     3.309000000     4.063000000    -2.435000000
H     4.068000000     3.888000000    -3.200000000
H     3.497000000     5.095000000    -2.131000000
C     1.910000000     3.703000000    -2.972000000
C     0.739000000     4.234000000    -2.405000000
C    -0.502000000     3.864000000    -2.949000000
H    -1.406000000     4.273000000    -2.505000000
C    -0.606000000     2.946000000    -3.982000000
O    -1.825000000     2.387000000    -4.200000000
C    -2.140000000     1.063000000    -3.750000000
H    -1.564000000     0.778000000    -2.857000000
C    -3.603000000     0.942000000    -3.348000000
C    -4.470000000    -0.159000000    -3.676000000
H    -4.129000000    -0.961000000    -4.326000000
C    -4.154000000     1.931000000    -2.518000000
H    -3.530000000     2.772000000    -2.226000000
C    -5.451000000     1.888000000    -2.045000000
O    -5.997000000     2.867000000    -1.243000000
C    -6.210000000     0.785000000    -2.313000000
H    -7.216000000     0.611000000    -1.939000000
C    -5.757000000    -0.212000000    -3.170000000
O    -6.481000000    -1.403000000    -3.287000000
C    -5.914000000    -2.609000000    -3.182000000
C    -5.277000000    -3.016000000    -1.999000000
H    -5.338000000    -2.351000000    -1.141000000
C    -5.837000000    -3.539000000    -4.299000000
H    -6.278000000    -3.258000000    -5.252000000
C    -5.082000000    -4.675000000    -4.209000000
H    -4.927000000    -5.322000000    -5.068000000
C    -4.580000000    -5.078000000    -2.928000000
H    -4.172000000    -6.079000000    -2.812000000
C    -4.570000000    -4.226000000    -1.855000000
O    -4.118000000    -4.647000000    -0.627000000
C    -2.779000000    -4.772000000    -0.383000000
C    -2.454000000    -5.515000000     0.787000000
H    -3.309000000    -5.886000000     1.347000000
C    -1.172000000    -5.693000000     1.123000000
O    -0.833000000    -6.283000000     2.383000000
C     0.323000000    -5.911000000     3.064000000
C     0.360000000    -4.742000000     3.781000000
H    -0.400000000    -3.967000000     3.719000000
C     1.317000000    -6.940000000     3.191000000
H     1.336000000    -7.759000000     2.476000000
C     2.278000000    -6.815000000     4.184000000
H     3.038000000    -7.592000000     4.208000000
C     2.317000000    -5.603000000     4.895000000
H     3.018000000    -5.359000000     5.689000000
C     1.401000000    -4.578000000     4.668000000
O     1.391000000    -3.480000000     5.434000000
C     1.812000000    -2.184000000     5.035000000
C     1.365000000    -1.091000000     5.756000000
H     0.875000000    -1.296000000     6.704000000
C     1.640000000     0.213000000     5.313000000
O     1.190000000     1.269000000     6.110000000
C     1.548000000     2.586000000     5.974000000
C     0.697000000     3.505000000     5.393000000
H    -0.235000000     3.140000000     4.969000000
C     2.825000000     2.947000000     6.347000000
H     3.543000000     2.189000000     6.649000000
C     3.182000000     4.283000000     6.219000000
H     4.215000000     4.554000000     6.422000000
C     2.341000000     5.207000000     5.642000000
H     2.569000000     6.249000000     5.853000000
C     1.039000000     4.879000000     5.325000000
O     0.068000000     5.727000000     4.881000000
C    -0.292000000     5.710000000     3.520000000
C    -1.625000000     5.725000000     3.309000000
H    -2.235000000     6.073000000     4.139000000
C    -2.147000000     5.530000000     2.038000000
O    -3.515000000     5.470000000     1.973000000
C    -4.171000000     4.319000000     1.653000000
C    -4.244000000     3.263000000     2.499000000
H    -3.819000000     3.218000000     3.498000000
C    -4.838000000     2.101000000     2.102000000
H    -4.836000000     1.241000000     2.766000000
C    -5.511000000     1.964000000     0.885000000
H    -5.918000000     0.999000000     0.594000000
C    -5.491000000     3.057000000    -0.042000000
C    -4.889000000     4.313000000     0.441000000
H    -4.882000000     5.176000000    -0.220000000
C    -0.844000000     0.188000000     2.563000000
H    -0.781000000     0.471000000     3.611000000
C    -0.243000000     0.969000000     1.550000000
H     0.192000000     1.953000000     1.705000000
C    -0.397000000     0.598000000     0.192000000
H     0.063000000     1.192000000    -0.546000000
C    -1.118000000    -0.566000000    -0.043000000
H    -1.338000000    -0.790000000    -1.084000000
C    -1.662000000    -1.385000000     0.976000000
H    -2.169000000    -2.300000000     0.682000000
C    -1.493000000    -1.019000000     2.339000000
C    -2.043000000    -1.807000000     3.516000000
O    -3.103000000    -2.368000000     3.287000000
O    -1.785000000    -1.531000000     4.673000000
O    -4.231000000    -2.840000000     7.163000000
H    -4.343000000    -3.652000000     7.656000000
H    -3.287000000    -2.778000000     7.014000000
O    -5.632000000    -4.675000000     1.693000000
H    -5.105000000    -3.951000000     1.355000000
H    -6.172000000    -4.279000000     2.377000000
O    -1.478000000     0.763000000     9.421000000
H    -1.348000000    -0.185000000     9.454000000
H    -1.707000000     0.941000000     8.509000000
O    -1.751000000    -6.297000000     6.082000000
H    -2.195000000    -7.128000000     6.246000000
H    -2.439000000    -5.719000000     5.750000000
O    -5.836000000    -3.416000000     4.065000000
H    -5.762000000    -3.927000000     4.871000000
H    -4.931000000    -3.288000000     3.778000000
O    -3.325000000     2.919000000     7.778000000
H    -4.024000000     2.325000000     8.053000000
H    -2.803000000     2.405000000     7.161000000
O    -2.263000000     0.953000000     6.208000000
H    -1.773000000     0.321000000     5.682000000
H    -3.164000000     0.630000000     6.193000000
O    -6.647000000     2.256000000     5.237000000
H    -6.317000000     1.388000000     5.005000000
H    -5.864000000     2.804000000     5.289000000
O    -1.160000000    -5.490000000     8.878000000
H    -2.083000000    -5.477000000     9.129000000
H    -1.167000000    -5.721000000     7.949000000
O    -6.367000000    -0.694000000     4.730000000
H    -6.100000000    -0.822000000     5.640000000
H    -6.078000000    -1.488000000     4.281000000
O    -4.739000000     0.108000000     7.348000000
H    -5.125000000     0.719000000     7.976000000
H    -5.061000000    -0.751000000     7.620000000
O    -1.631000000    -1.920000000     9.418000000
H    -2.531000000    -2.156000000     9.642000000
H    -1.450000000    -2.402000000     8.612000000
O    -8.106000000     0.439000000     3.126000000
H    -8.820000000     0.761000000     3.677000000
H    -7.467000000     0.085000000     3.744000000
O    -1.548000000    -3.139000000     6.762000000
H    -0.671000000    -3.502000000     6.643000000
H    -1.713000000    -2.643000000     5.960000000
O    -2.378000000    -8.270000000     4.167000000
H    -2.220000000    -7.328000000     4.226000000
H    -2.043000000    -8.516000000     3.305000000
O    -4.861000000    -1.419000000     1.683000000
H    -4.298000000    -1.648000000     2.423000000
H    -4.253000000    -1.169000000     0.987000000
O    -7.473000000    -1.443000000     0.999000000
H    -6.567000000    -1.540000000     1.291000000
H    -7.919000000    -1.028000000     1.737000000
O    -3.511000000    -4.883000000     4.283000000
H    -3.223000000    -4.006000000     4.031000000
H    -3.795000000    -5.286000000     3.463000000
O    -8.463000000    -4.491000000     3.853000000
H    -7.622000000    -4.192000000     4.197000000
H    -9.098000000    -3.860000000     4.192000000
