215
-1452.86840
C     0.183000000    -4.435000000    -0.038000000
H     1.119000000    -4.121000000     0.417000000
C    -0.054000000    -4.130000000    -1.381000000
C    -1.157000000    -4.596000000    -2.005000000
H    -1.416000000    -4.389000000    -3.040000000
C     1.029000000    -3.318000000    -2.214000000
O     2.376000000    -3.776000000    -1.927000000
H     0.860000000    -2.284000000    -1.877000000
O     0.821000000    -3.480000000    -3.618000000
C     0.809000000    -2.268000000    -4.294000000
C    -0.457000000    -1.770000000    -4.465000000
H    -1.369000000    -2.356000000    -4.398000000
C    -0.560000000    -0.431000000    -4.808000000
O    -1.876000000     0.007000000    -4.745000000
C     0.591000000     0.314000000    -5.045000000
C     0.453000000     1.709000000    -5.359000000
H     1.311000000     2.152000000    -5.869000000
C     0.183000000     2.671000000    -4.211000000
C     1.320000000     3.314000000    -3.700000000
H     2.274000000     3.103000000    -4.176000000
H    -0.266000000     1.798000000    -6.176000000
C     1.828000000    -0.229000000    -4.987000000
H     2.680000000     0.444000000    -5.034000000
C     1.920000000    -1.561000000    -4.542000000
C     3.299000000    -2.208000000    -4.215000000
H     4.062000000    -1.892000000    -4.930000000
H     3.239000000    -3.294000000    -4.308000000
C     3.706000000    -1.898000000    -2.780000000
C     4.371000000    -0.721000000    -2.509000000
H     4.719000000    -0.156000000    -3.370000000
C     3.269000000    -2.751000000    -1.720000000
C     3.598000000    -2.467000000    -0.377000000
H     3.191000000    -3.111000000     0.399000000
C     4.289000000    -1.274000000    -0.121000000
O     4.533000000    -0.966000000     1.225000000
C     3.607000000    -0.045000000     1.892000000
C     3.187000000    -0.492000000     3.260000000
C     2.672000000     0.519000000     4.137000000
H     2.587000000     1.560000000     3.836000000
C     3.199000000    -1.776000000     3.638000000
H     3.519000000    -2.562000000     2.959000000
O     4.246000000     1.257000000     1.989000000
H     2.758000000    -0.015000000     1.192000000
C     4.743000000    -0.406000000    -1.137000000
C     5.406000000     0.908000000    -0.708000000
H     6.076000000     1.272000000    -1.490000000
H     6.051000000     0.839000000     0.170000000
C     4.542000000     2.050000000    -0.353000000
C     4.118000000     2.944000000    -1.362000000
H     4.467000000     2.987000000    -2.391000000
C     3.984000000     2.170000000     0.986000000
C     3.129000000     3.173000000     1.232000000
H     2.717000000     3.360000000     2.220000000
C     2.729000000     4.107000000     0.313000000
O     1.641000000     4.936000000     0.585000000
C     0.354000000     4.436000000     0.401000000
C    -0.569000000     4.744000000     1.602000000
C    -0.013000000     4.869000000     2.884000000
H     1.043000000     4.741000000     3.107000000
C    -1.927000000     4.879000000     1.458000000
H    -2.452000000     4.655000000     0.533000000
O    -0.161000000     5.035000000    -0.794000000
H     0.399000000     3.340000000     0.310000000
C     3.218000000     3.967000000    -0.985000000
C     2.517000000     4.851000000    -2.076000000
H     3.057000000     4.964000000    -3.018000000
H     2.349000000     5.894000000    -1.800000000
C     1.230000000     4.233000000    -2.663000000
C    -0.005000000     4.428000000    -2.037000000
C    -1.163000000     3.831000000    -2.528000000
H    -2.134000000     3.943000000    -2.054000000
C    -1.025000000     2.878000000    -3.582000000
O    -2.127000000     2.119000000    -3.807000000
C    -2.116000000     0.724000000    -3.541000000
H    -1.313000000     0.462000000    -2.836000000
C    -3.433000000     0.345000000    -2.940000000
C    -4.083000000    -0.862000000    -3.275000000
H    -3.621000000    -1.563000000    -3.966000000
C    -4.059000000     1.202000000    -2.042000000
H    -3.584000000     2.069000000    -1.590000000
C    -5.259000000     0.808000000    -1.502000000
O    -5.911000000     1.630000000    -0.606000000
C    -5.931000000    -0.300000000    -1.905000000
H    -6.906000000    -0.482000000    -1.460000000
C    -5.313000000    -1.166000000    -2.723000000
O    -6.024000000    -2.253000000    -3.163000000
C    -5.531000000    -3.527000000    -3.282000000
C    -4.539000000    -4.018000000    -2.439000000
H    -3.973000000    -3.513000000    -1.660000000
C    -6.128000000    -4.321000000    -4.243000000
H    -6.986000000    -3.838000000    -4.703000000
C    -5.736000000    -5.680000000    -4.498000000
H    -6.298000000    -6.291000000    -5.200000000
C    -4.735000000    -6.162000000    -3.693000000
H    -4.496000000    -7.218000000    -3.604000000
C    -4.101000000    -5.377000000    -2.741000000
O    -3.245000000    -6.007000000    -1.830000000
C    -2.025000000    -5.511000000    -1.316000000
C    -1.954000000    -5.652000000     0.085000000
H    -2.700000000    -6.260000000     0.589000000
C    -0.797000000    -5.127000000     0.704000000
O    -0.708000000    -5.379000000     2.024000000
C     0.472000000    -5.491000000     2.803000000
C     0.874000000    -4.409000000     3.553000000
H     0.218000000    -3.553000000     3.685000000
C     1.348000000    -6.537000000     2.558000000
H     1.085000000    -7.320000000     1.852000000
C     2.591000000    -6.610000000     3.225000000
H     3.239000000    -7.459000000     3.020000000
C     2.937000000    -5.595000000     4.051000000
H     3.822000000    -5.696000000     4.674000000
C     2.089000000    -4.441000000     4.186000000
O     2.430000000    -3.491000000     5.167000000
C     2.661000000    -2.149000000     4.833000000
C     2.069000000    -1.235000000     5.680000000
H     1.541000000    -1.587000000     6.562000000
C     2.143000000     0.142000000     5.353000000
O     1.401000000     1.056000000     6.142000000
C     1.562000000     2.424000000     6.020000000
C     0.537000000     3.221000000     5.607000000
H    -0.446000000     2.823000000     5.368000000
C     2.792000000     3.032000000     6.417000000
H     3.618000000     2.376000000     6.678000000
C     2.974000000     4.400000000     6.389000000
H     3.862000000     4.881000000     6.790000000
C     2.004000000     5.209000000     5.877000000
H     2.198000000     6.279000000     5.869000000
C     0.748000000     4.613000000     5.632000000
O    -0.302000000     5.366000000     5.216000000
C    -0.883000000     5.073000000     4.031000000
C    -2.269000000     5.216000000     3.841000000
H    -2.903000000     5.526000000     4.667000000
C    -2.768000000     5.038000000     2.606000000
O    -4.129000000     4.800000000     2.497000000
C    -4.546000000     3.562000000     2.215000000
C    -4.341000000     2.583000000     3.187000000
H    -3.779000000     2.765000000     4.100000000
C    -4.719000000     1.260000000     2.881000000
H    -4.644000000     0.478000000     3.631000000
C    -5.184000000     1.010000000     1.554000000
H    -5.570000000     0.041000000     1.249000000
C    -5.479000000     2.005000000     0.634000000
C    -5.239000000     3.319000000     1.024000000
H    -5.384000000     4.163000000     0.354000000
C    -0.671000000    -0.286000000     2.170000000
H    -0.403000000     0.084000000     3.157000000
C    -0.066000000     0.328000000     1.064000000
H     0.448000000     1.284000000     1.129000000
C    -0.222000000    -0.178000000    -0.218000000
H     0.357000000     0.239000000    -1.000000000
C    -1.018000000    -1.297000000    -0.440000000
H    -1.205000000    -1.743000000    -1.414000000
C    -1.721000000    -1.738000000     0.610000000
H    -2.461000000    -2.517000000     0.447000000
C    -1.468000000    -1.381000000     1.938000000
C    -2.370000000    -1.869000000     3.026000000
O    -3.191000000    -2.792000000     2.881000000
O    -2.118000000    -1.503000000     4.181000000
O    -3.048000000    -6.455000000     6.718000000
H    -2.356000000    -5.810000000     6.570000000
H    -2.660000000    -7.088000000     7.323000000
O    -5.279000000    -3.721000000     4.649000000
H    -5.061000000    -3.101000000     5.345000000
H    -4.784000000    -3.412000000     3.890000000
O    -4.108000000    -8.285000000     1.162000000
H    -4.698000000    -7.538000000     1.064000000
H    -4.630000000    -9.039000000     0.887000000
O    -7.629000000    -1.851000000     1.789000000
H    -8.188000000    -2.351000000     2.383000000
H    -8.235000000    -1.284000000     1.311000000
O    -7.120000000    -0.303000000     4.983000000
H    -6.354000000    -0.809000000     5.254000000
H    -7.163000000    -0.424000000     4.034000000
O    -1.578000000    -0.719000000     6.597000000
H    -1.812000000     0.205000000     6.511000000
H    -1.681000000    -1.076000000     5.715000000
O    -3.278000000    -1.134000000     8.834000000
H    -3.028000000    -1.891000000     9.364000000
H    -2.632000000    -1.113000000     8.127000000
O    -6.301000000     3.108000000     6.337000000
H    -5.639000000     2.638000000     5.830000000
H    -6.312000000     2.664000000     7.185000000
O    -0.074000000    -2.520000000     8.360000000
H    -0.550000000    -1.968000000     7.739000000
H    -0.302000000    -3.415000000     8.109000000
O    -7.297000000    -5.679000000     4.193000000
H    -8.088000000    -5.202000000     3.941000000
H    -6.600000000    -5.024000000     4.154000000
O    -4.416000000    -1.220000000     5.536000000
H    -3.572000000    -1.416000000     5.130000000
H    -4.203000000    -1.014000000     6.446000000
O    -2.396000000    -3.945000000     5.606000000
H    -2.945000000    -4.280000000     4.897000000
H    -2.046000000    -3.120000000     5.268000000
O    -2.774000000    -8.350000000     3.486000000
H    -3.063000000    -8.535000000     2.593000000
H    -3.238000000    -7.549000000     3.728000000
O    -5.360000000    -3.478000000     1.389000000
H    -6.191000000    -3.078000000     1.643000000
H    -4.696000000    -2.967000000     1.852000000
O    -2.500000000     1.852000000     6.908000000
H    -2.092000000     2.618000000     7.312000000
H    -3.379000000     1.821000000     7.286000000
O    -5.043000000     1.068000000     7.746000000
H    -5.889000000     0.649000000     7.905000000
H    -4.414000000     0.530000000     8.226000000
O    -3.202000000    -5.483000000     3.134000000
H    -3.466000000    -4.619000000     2.818000000
H    -2.347000000    -5.635000000     2.730000000
O    -5.561000000    -6.069000000     0.576000000
H    -5.264000000    -5.178000000     0.762000000
H    -6.188000000    -5.968000000    -0.140000000
O    -5.217000000    -4.495000000     7.833000000
H    -4.890000000    -5.139000000     8.461000000
H    -4.683000000    -4.630000000     7.051000000
