215
-1449.69793
C     1.656000000    -4.774000000     1.162000000
H     2.575000000    -4.196000000     1.210000000
C     1.008000000    -4.807000000    -0.060000000
C    -0.177000000    -5.552000000    -0.117000000
H    -0.765000000    -5.587000000    -1.031000000
C     1.474000000    -3.951000000    -1.195000000
O     2.882000000    -3.773000000    -1.326000000
H     1.102000000    -2.924000000    -1.062000000
O     1.066000000    -4.447000000    -2.464000000
C     0.535000000    -3.549000000    -3.351000000
C    -0.844000000    -3.299000000    -3.341000000
H    -1.511000000    -3.946000000    -2.776000000
C    -1.407000000    -2.208000000    -4.066000000
O    -2.730000000    -1.966000000    -3.959000000
C    -0.522000000    -1.384000000    -4.795000000
C    -1.111000000    -0.298000000    -5.613000000
H    -0.481000000    -0.094000000    -6.481000000
C    -1.269000000     1.002000000    -4.779000000
C    -0.195000000     1.945000000    -4.886000000
H     0.600000000     1.728000000    -5.595000000
H    -2.069000000    -0.507000000    -6.093000000
C     0.865000000    -1.647000000    -4.812000000
H     1.434000000    -1.022000000    -5.495000000
C     1.408000000    -2.684000000    -4.060000000
C     2.900000000    -2.823000000    -3.932000000
H     3.453000000    -2.552000000    -4.834000000
H     3.136000000    -3.878000000    -3.775000000
C     3.310000000    -1.976000000    -2.742000000
C     3.912000000    -0.738000000    -2.906000000
H     3.796000000    -0.292000000    -3.890000000
C     3.290000000    -2.506000000    -1.501000000
C     3.589000000    -1.673000000    -0.417000000
H     3.367000000    -2.062000000     0.573000000
C     4.223000000    -0.469000000    -0.606000000
O     4.462000000     0.291000000     0.511000000
C     3.558000000     1.378000000     0.837000000
C     3.070000000     1.345000000     2.285000000
C     2.954000000     2.476000000     3.057000000
H     3.200000000     3.436000000     2.612000000
C     2.904000000     0.097000000     2.963000000
H     3.211000000    -0.790000000     2.413000000
O     4.159000000     2.585000000     0.442000000
H     2.584000000     1.166000000     0.371000000
C     4.457000000     0.043000000    -1.890000000
C     4.956000000     1.417000000    -2.074000000
H     5.362000000     1.628000000    -3.065000000
H     5.708000000     1.635000000    -1.313000000
C     3.905000000     2.514000000    -1.934000000
C     2.991000000     2.846000000    -2.939000000
H     3.107000000     2.336000000    -3.893000000
C     3.615000000     3.086000000    -0.645000000
C     2.631000000     4.015000000    -0.507000000
H     2.551000000     4.407000000     0.504000000
C     1.831000000     4.406000000    -1.594000000
O     0.777000000     5.228000000    -1.389000000
C    -0.502000000     4.486000000    -1.139000000
C    -1.277000000     5.042000000    -0.019000000
C    -0.595000000     5.831000000     0.961000000
H     0.372000000     6.240000000     0.681000000
C    -2.560000000     4.608000000     0.346000000
H    -3.073000000     3.899000000    -0.300000000
O    -1.304000000     4.410000000    -2.352000000
H    -0.175000000     3.469000000    -0.877000000
C     2.010000000     3.860000000    -2.826000000
C     1.053000000     4.018000000    -3.981000000
H     1.645000000     3.849000000    -4.883000000
H     0.671000000     5.041000000    -3.960000000
C    -0.068000000     3.044000000    -4.002000000
C    -1.168000000     3.283000000    -3.111000000
C    -2.346000000     2.465000000    -3.175000000
H    -3.288000000     2.808000000    -2.754000000
C    -2.308000000     1.274000000    -3.846000000
O    -3.314000000     0.370000000    -3.590000000
C    -3.011000000    -0.953000000    -2.985000000
H    -2.248000000    -0.920000000    -2.193000000
C    -4.207000000    -1.393000000    -2.142000000
C    -4.378000000    -2.648000000    -1.585000000
H    -3.669000000    -3.404000000    -1.912000000
C    -4.962000000    -0.407000000    -1.522000000
H    -4.900000000     0.649000000    -1.771000000
C    -5.916000000    -0.675000000    -0.536000000
O    -6.543000000     0.346000000     0.194000000
C    -6.107000000    -1.941000000    -0.103000000
H    -6.694000000    -2.156000000     0.786000000
C    -5.300000000    -2.970000000    -0.574000000
O    -5.500000000    -4.207000000    -0.062000000
C    -4.749000000    -5.354000000    -0.301000000
C    -3.603000000    -5.596000000     0.479000000
H    -3.411000000    -4.961000000     1.341000000
C    -5.136000000    -6.264000000    -1.251000000
H    -6.066000000    -6.001000000    -1.748000000
C    -4.407000000    -7.433000000    -1.465000000
H    -4.766000000    -8.126000000    -2.222000000
C    -3.293000000    -7.656000000    -0.664000000
H    -2.711000000    -8.570000000    -0.747000000
C    -2.872000000    -6.710000000     0.230000000
O    -1.736000000    -7.012000000     1.013000000
C    -0.587000000    -6.294000000     1.047000000
C     0.052000000    -6.138000000     2.232000000
H    -0.439000000    -6.654000000     3.053000000
C     1.230000000    -5.487000000     2.283000000
O     1.942000000    -5.524000000     3.465000000
C     2.729000000    -4.465000000     3.766000000
C     2.134000000    -3.358000000     4.244000000
H     1.060000000    -3.222000000     4.341000000
C     4.121000000    -4.548000000     3.517000000
H     4.460000000    -5.549000000     3.264000000
C     4.962000000    -3.554000000     3.897000000
H     6.041000000    -3.648000000     3.803000000
C     4.391000000    -2.431000000     4.452000000
H     4.963000000    -1.551000000     4.737000000
C     2.993000000    -2.305000000     4.579000000
O     2.381000000    -1.121000000     5.018000000
C     2.495000000     0.066000000     4.311000000
C     2.402000000     1.252000000     5.037000000
H     2.163000000     1.289000000     6.097000000
C     2.630000000     2.492000000     4.397000000
O     2.525000000     3.666000000     5.174000000
C     2.208000000     4.888000000     4.648000000
C     1.031000000     5.201000000     4.046000000
H     0.206000000     4.495000000     4.004000000
C     3.095000000     5.926000000     4.929000000
H     3.990000000     5.731000000     5.513000000
C     2.867000000     7.216000000     4.480000000
H     3.676000000     7.925000000     4.637000000
C     1.691000000     7.524000000     3.846000000
H     1.519000000     8.566000000     3.590000000
C     0.709000000     6.527000000     3.643000000
O    -0.565000000     6.846000000     3.106000000
C    -1.194000000     6.084000000     2.167000000
C    -2.521000000     5.785000000     2.416000000
H    -2.922000000     6.041000000     3.393000000
C    -3.228000000     5.000000000     1.496000000
O    -4.458000000     4.490000000     1.719000000
C    -4.653000000     3.148000000     1.865000000
C    -4.179000000     2.479000000     2.950000000
H    -3.656000000     3.068000000     3.699000000
C    -4.428000000     1.086000000     3.118000000
H    -3.977000000     0.523000000     3.932000000
C    -5.278000000     0.456000000     2.246000000
H    -5.491000000    -0.584000000     2.478000000
C    -5.770000000     1.037000000     1.121000000
C    -5.483000000     2.421000000     0.985000000
H    -5.913000000     2.976000000     0.156000000
C    -0.743000000     0.698000000     2.080000000
H    -0.793000000     1.496000000     2.816000000
C    -0.773000000     1.036000000     0.726000000
H    -0.853000000     2.090000000     0.473000000
C    -0.783000000     0.005000000    -0.227000000
H    -0.890000000     0.265000000    -1.256000000
C    -0.840000000    -1.360000000     0.135000000
H    -0.746000000    -2.205000000    -0.542000000
C    -0.956000000    -1.661000000     1.505000000
H    -0.938000000    -2.713000000     1.780000000
C    -0.925000000    -0.643000000     2.454000000
C    -1.024000000    -0.962000000     3.957000000
O    -1.096000000    -2.128000000     4.220000000
O    -0.823000000    -0.087000000     4.740000000
O    -0.617000000    -4.254000000     8.054000000
H    -1.315000000    -3.708000000     7.694000000
H    -0.487000000    -4.940000000     7.399000000
O    -0.488000000    -2.431000000    10.101000000
H    -1.348000000    -2.020000000    10.009000000
H    -0.395000000    -2.970000000     9.316000000
O    -3.720000000    -2.399000000     3.699000000
H    -3.748000000    -3.160000000     3.119000000
H    -2.817000000    -2.087000000     3.643000000
O    -1.442000000     5.186000000     6.001000000
H    -1.521000000     4.444000000     5.401000000
H    -1.025000000     4.820000000     6.781000000
O    -0.079000000    -0.545000000     7.148000000
H    -0.294000000    -0.353000000     6.235000000
H     0.558000000    -1.258000000     7.099000000
O     3.701000000    -1.348000000     7.692000000
H     3.087000000    -1.297000000     8.424000000
H     3.161000000    -1.198000000     6.916000000
O    -2.517000000    -2.803000000     6.797000000
H    -3.054000000    -3.454000000     6.346000000
H    -1.915000000    -2.482000000     6.125000000
O    -3.403000000    -5.482000000     4.233000000
H    -3.401000000    -6.399000000     3.959000000
H    -4.208000000    -5.122000000     3.859000000
O    -1.256000000     2.622000000     5.353000000
H    -0.458000000     2.801000000     5.851000000
H    -1.200000000     1.690000000     5.139000000
O     0.690000000    -6.368000000     5.957000000
H     0.248000000    -5.881000000     5.262000000
H     1.036000000    -7.147000000     5.521000000
O    -5.846000000    -2.265000000     5.826000000
H    -5.711000000    -1.841000000     6.673000000
H    -5.080000000    -2.016000000     5.309000000
O    -0.807000000     1.187000000     9.155000000
H    -0.583000000     0.462000000     8.571000000
H    -1.764000000     1.182000000     9.184000000
O     1.775000000    -0.999000000     9.541000000
H     1.812000000    -0.220000000    10.096000000
H     0.961000000    -1.434000000     9.793000000
O    -3.820000000     2.477000000     6.404000000
H    -3.071000000     2.710000000     5.857000000
H    -3.729000000     1.534000000     6.546000000
O    -0.971000000    -4.673000000     4.600000000
H    -0.991000000    -3.716000000     4.588000000
H    -1.891000000    -4.933000000     4.539000000
O     0.707000000     2.949000000     7.750000000
H     1.601000000     2.629000000     7.868000000
H     0.165000000     2.333000000     8.244000000
O    -4.208000000    -3.615000000     9.377000000
H    -3.550000000    -4.263000000     9.632000000
H    -3.715000000    -2.801000000     9.274000000
O     3.141000000    -5.408000000     6.465000000
H     2.208000000    -5.619000000     6.506000000
H     3.252000000    -4.974000000     5.618000000
O    -3.705000000    -0.405000000     7.326000000
H    -3.725000000    -0.086000000     8.228000000
H    -3.284000000    -1.262000000     7.384000000
