215
-1421.11198
C     1.477000000    -4.643000000     1.080000000
H     2.513000000    -4.314000000     1.042000000
C     0.708000000    -4.407000000    -0.053000000
C    -0.633000000    -4.633000000     0.012000000
H    -1.280000000    -4.391000000    -0.827000000
C     1.398000000    -3.604000000    -1.179000000
O     2.800000000    -3.538000000    -1.261000000
H     1.046000000    -2.566000000    -1.093000000
O     0.914000000    -4.095000000    -2.430000000
C     0.461000000    -3.106000000    -3.313000000
C    -0.880000000    -2.904000000    -3.415000000
H    -1.623000000    -3.395000000    -2.791000000
C    -1.391000000    -2.015000000    -4.330000000
O    -2.723000000    -1.804000000    -4.309000000
C    -0.542000000    -1.238000000    -5.058000000
C    -1.060000000    -0.061000000    -5.721000000
H    -0.478000000     0.163000000    -6.618000000
C    -1.063000000     1.080000000    -4.671000000
C    -0.088000000     2.047000000    -4.632000000
H     0.742000000     1.919000000    -5.323000000
H    -2.069000000    -0.259000000    -6.087000000
C     0.851000000    -1.423000000    -4.957000000
H     1.609000000    -0.829000000    -5.460000000
C     1.339000000    -2.400000000    -4.102000000
C     2.847000000    -2.493000000    -4.027000000
H     3.343000000    -2.175000000    -4.946000000
H     3.123000000    -3.548000000    -3.989000000
C     3.479000000    -1.790000000    -2.802000000
C     4.082000000    -0.513000000    -2.934000000
H     4.178000000    -0.037000000    -3.907000000
C     3.424000000    -2.362000000    -1.512000000
C     3.959000000    -1.666000000    -0.422000000
H     3.961000000    -2.032000000     0.601000000
C     4.398000000    -0.375000000    -0.582000000
O     4.676000000     0.292000000     0.578000000
C     3.860000000     1.370000000     1.018000000
C     3.706000000     1.362000000     2.569000000
C     3.586000000     2.558000000     3.269000000
H     3.769000000     3.490000000     2.740000000
C     3.717000000     0.118000000     3.215000000
H     3.810000000    -0.723000000     2.533000000
O     4.192000000     2.704000000     0.510000000
H     2.904000000     1.047000000     0.581000000
C     4.522000000     0.195000000    -1.845000000
C     4.959000000     1.601000000    -2.033000000
H     5.335000000     1.762000000    -3.045000000
H     5.739000000     1.815000000    -1.299000000
C     3.800000000     2.543000000    -1.775000000
C     2.933000000     2.899000000    -2.779000000
H     3.007000000     2.348000000    -3.713000000
C     3.566000000     3.198000000    -0.554000000
C     2.599000000     4.165000000    -0.379000000
H     2.386000000     4.603000000     0.592000000
C     1.709000000     4.490000000    -1.452000000
O     0.518000000     5.158000000    -1.134000000
C    -0.619000000     4.286000000    -0.950000000
C    -1.291000000     4.577000000     0.364000000
C    -0.605000000     5.073000000     1.482000000
H     0.397000000     5.490000000     1.416000000
C    -2.603000000     4.042000000     0.523000000
H    -3.131000000     3.582000000    -0.310000000
O    -1.410000000     4.364000000    -2.120000000
H    -0.341000000     3.223000000    -0.904000000
C     1.905000000     3.864000000    -2.681000000
C     0.931000000     4.108000000    -3.855000000
H     1.452000000     3.849000000    -4.779000000
H     0.463000000     5.078000000    -4.036000000
C    -0.223000000     3.147000000    -3.829000000
C    -1.356000000     3.339000000    -3.041000000
C    -2.285000000     2.364000000    -3.045000000
H    -3.158000000     2.427000000    -2.401000000
C    -2.248000000     1.285000000    -3.952000000
O    -3.332000000     0.388000000    -3.939000000
C    -3.206000000    -0.854000000    -3.330000000
H    -2.470000000    -0.846000000    -2.513000000
C    -4.501000000    -1.241000000    -2.601000000
C    -4.957000000    -2.584000000    -2.669000000
H    -4.435000000    -3.274000000    -3.327000000
C    -5.028000000    -0.417000000    -1.576000000
H    -4.591000000     0.578000000    -1.523000000
C    -6.050000000    -0.851000000    -0.747000000
O    -6.550000000    -0.142000000     0.342000000
C    -6.523000000    -2.117000000    -0.868000000
H    -7.182000000    -2.517000000    -0.102000000
C    -5.949000000    -3.026000000    -1.809000000
O    -6.219000000    -4.377000000    -1.731000000
C    -5.315000000    -5.288000000    -1.183000000
C    -4.453000000    -4.949000000    -0.097000000
H    -4.453000000    -4.007000000     0.445000000
C    -5.046000000    -6.495000000    -1.827000000
H    -5.609000000    -6.834000000    -2.693000000
C    -3.982000000    -7.313000000    -1.424000000
H    -3.762000000    -8.244000000    -1.941000000
C    -3.147000000    -6.963000000    -0.392000000
H    -2.290000000    -7.581000000    -0.137000000
C    -3.405000000    -5.789000000     0.303000000
O    -2.573000000    -5.408000000     1.277000000
C    -1.214000000    -5.223000000     1.179000000
C    -0.407000000    -5.549000000     2.271000000
H    -0.903000000    -5.890000000     3.177000000
C     0.925000000    -5.196000000     2.233000000
O     1.595000000    -5.241000000     3.399000000
C     2.611000000    -4.411000000     3.686000000
C     2.409000000    -3.148000000     4.283000000
H     1.403000000    -2.755000000     4.402000000
C     3.904000000    -4.825000000     3.597000000
H     4.033000000    -5.854000000     3.273000000
C     5.014000000    -4.034000000     3.896000000
H     6.017000000    -4.384000000     3.665000000
C     4.770000000    -2.758000000     4.454000000
H     5.481000000    -1.945000000     4.573000000
C     3.477000000    -2.360000000     4.648000000
O     3.180000000    -1.159000000     5.221000000
C     3.455000000     0.043000000     4.613000000
C     3.141000000     1.237000000     5.225000000
H     2.863000000     1.149000000     6.272000000
C     3.320000000     2.512000000     4.622000000
O     3.093000000     3.625000000     5.376000000
C     2.517000000     4.778000000     4.918000000
C     1.218000000     4.819000000     4.576000000
H     0.712000000     3.857000000     4.570000000
C     3.277000000     5.934000000     4.994000000
H     4.325000000     5.852000000     5.271000000
C     2.731000000     7.119000000     4.546000000
H     3.259000000     8.068000000     4.495000000
C     1.404000000     7.152000000     4.044000000
H     0.838000000     8.013000000     3.696000000
C     0.621000000     6.018000000     4.072000000
O    -0.725000000     6.008000000     3.734000000
C    -1.235000000     5.193000000     2.714000000
C    -2.598000000     4.817000000     2.844000000
H    -3.213000000     4.981000000     3.725000000
C    -3.221000000     4.356000000     1.740000000
O    -4.599000000     3.931000000     1.841000000
C    -4.888000000     2.654000000     1.972000000
C    -4.153000000     2.035000000     3.020000000
H    -3.603000000     2.589000000     3.776000000
C    -4.263000000     0.627000000     3.166000000
H    -3.712000000     0.047000000     3.903000000
C    -5.066000000    -0.116000000     2.212000000
H    -5.090000000    -1.203000000     2.176000000
C    -5.839000000     0.603000000     1.259000000
C    -5.684000000     1.971000000     1.031000000
H    -6.155000000     2.502000000     0.207000000
C     0.186000000     0.372000000     2.206000000
H     0.939000000     1.028000000     2.635000000
C     0.091000000     0.345000000     0.830000000
H     0.570000000     1.029000000     0.135000000
C    -0.657000000    -0.693000000     0.180000000
H    -0.695000000    -0.825000000    -0.930000000
C    -1.446000000    -1.556000000     0.959000000
H    -2.075000000    -2.323000000     0.516000000
C    -1.299000000    -1.475000000     2.346000000
H    -1.784000000    -2.250000000     2.934000000
C    -0.537000000    -0.541000000     2.943000000
C    -0.406000000    -0.593000000     4.481000000
O    -0.571000000    -1.677000000     5.020000000
O    -0.332000000     0.376000000     5.195000000
O     2.448000000    -4.805000000     7.648000000
H     1.969000000    -4.093000000     7.222000000
H     1.834000000    -5.540000000     7.648000000
O    -6.845000000     0.833000000     4.298000000
H    -6.809000000     1.717000000     4.663000000
H    -6.068000000     0.771000000     3.743000000
O     1.599000000    -1.714000000    10.111000000
H     1.332000000    -1.818000000     9.197000000
H     1.202000000    -0.887000000    10.384000000
O     0.324000000    -6.482000000     6.548000000
H    -0.424000000    -6.973000000     6.208000000
H     0.280000000    -5.637000000     6.100000000
O    -4.743000000    -3.177000000     3.788000000
H    -4.140000000    -3.620000000     4.385000000
H    -5.512000000    -2.984000000     4.325000000
O     0.698000000     0.810000000     7.594000000
H     0.431000000     0.914000000     6.681000000
H    -0.081000000     0.467000000     8.033000000
O     4.335000000    -0.773000000     8.802000000
H     4.004000000    -0.835000000     7.906000000
H     4.184000000    -1.642000000     9.174000000
O    -1.948000000    -5.285000000     8.652000000
H    -2.690000000    -4.683000000     8.584000000
H    -1.474000000    -5.175000000     7.828000000
O     0.979000000    -2.318000000     7.119000000
H     0.158000000    -2.369000000     6.629000000
H     1.281000000    -1.419000000     6.988000000
O    -1.724000000     2.901000000     9.500000000
H    -1.875000000     3.846000000     9.505000000
H    -1.537000000     2.693000000     8.584000000
O    -1.639000000     4.466000000     6.761000000
H    -2.413000000     5.018000000     6.870000000
H    -0.900000000     5.065000000     6.870000000
O    -3.774000000    -2.861000000     7.875000000
H    -4.648000000    -2.506000000     8.037000000
H    -3.269000000    -2.116000000     7.551000000
O    -1.939000000    -1.056000000     7.275000000
H    -2.327000000    -0.197000000     7.108000000
H    -1.439000000    -1.251000000     6.483000000
O    -2.401000000     1.597000000     6.428000000
H    -1.646000000     1.244000000     5.957000000
H    -2.243000000     2.540000000     6.460000000
O     1.462000000     3.487000000     8.024000000
H     1.188000000     4.310000000     7.619000000
H     1.239000000     2.817000000     7.378000000
O    -4.960000000     0.622000000     6.778000000
H    -5.077000000     0.092000000     5.990000000
H    -4.105000000     1.037000000     6.662000000
O    -0.592000000    -4.165000000     5.135000000
H    -0.501000000    -3.250000000     4.871000000
H    -1.527000000    -4.350000000     5.038000000
O    -3.472000000    -4.566000000     5.870000000
H    -3.976000000    -5.271000000     6.276000000
H    -3.636000000    -3.804000000     6.427000000
O    -1.695000000    -1.644000000     9.893000000
H    -1.324000000    -0.866000000    10.310000000
H    -1.875000000    -1.369000000     8.993000000
