215
-1457.00674
C    -0.308000000    -0.564000000    -5.358000000
H    -0.668000000    -1.571000000    -5.161000000
C     0.894000000    -0.195000000    -4.819000000
C     1.441000000     1.046000000    -5.109000000
H     2.418000000     1.333000000    -4.731000000
C     1.675000000    -1.146000000    -3.842000000
O     1.330000000    -2.505000000    -4.037000000
H     1.291000000    -0.890000000    -2.844000000
O     3.124000000    -1.051000000    -3.921000000
C     3.742000000    -1.049000000    -2.677000000
C     4.057000000     0.193000000    -2.154000000
H     3.879000000     1.078000000    -2.759000000
C     4.594000000     0.289000000    -0.898000000
O     4.845000000     1.532000000    -0.398000000
C     4.754000000    -0.862000000    -0.122000000
C     5.205000000    -0.865000000     1.327000000
H     5.691000000    -1.815000000     1.558000000
C     4.018000000    -0.659000000     2.274000000
C     3.499000000    -1.706000000     2.968000000
H     3.836000000    -2.732000000     2.846000000
H     5.989000000    -0.107000000     1.387000000
C     4.305000000    -2.109000000    -0.618000000
H     4.383000000    -3.003000000    -0.005000000
C     3.839000000    -2.196000000    -1.889000000
C     3.439000000    -3.566000000    -2.456000000
H     4.165000000    -4.345000000    -2.218000000
H     3.469000000    -3.482000000    -3.544000000
C     1.929000000    -3.868000000    -2.168000000
C     1.584000000    -4.422000000    -0.949000000
H     2.379000000    -4.803000000    -0.313000000
C     0.942000000    -3.368000000    -2.993000000
C    -0.428000000    -3.471000000    -2.662000000
H    -1.145000000    -3.053000000    -3.363000000
C    -0.803000000    -4.084000000    -1.452000000
O    -2.103000000    -4.170000000    -1.066000000
C    -2.478000000    -3.295000000     0.011000000
C    -3.672000000    -2.445000000    -0.327000000
C    -4.617000000    -2.258000000     0.668000000
H    -4.574000000    -2.801000000     1.609000000
C    -3.885000000    -1.975000000    -1.636000000
H    -3.099000000    -2.153000000    -2.365000000
O    -2.633000000    -4.078000000     1.220000000
H    -1.667000000    -2.561000000     0.123000000
C     0.243000000    -4.641000000    -0.619000000
C    -0.155000000    -5.445000000     0.660000000
H     0.634000000    -6.152000000     0.921000000
H    -1.075000000    -6.009000000     0.489000000
C    -0.341000000    -4.447000000     1.778000000
C     0.703000000    -4.142000000     2.637000000
H     1.669000000    -4.442000000     2.238000000
C    -1.613000000    -3.993000000     2.134000000
C    -1.790000000    -3.179000000     3.121000000
H    -2.802000000    -2.798000000     3.230000000
C    -0.706000000    -2.759000000     3.910000000
O    -0.824000000    -1.670000000     4.638000000
C    -0.350000000    -0.426000000     4.055000000
C    -1.433000000     0.704000000     4.314000000
C    -2.754000000     0.388000000     4.636000000
H    -3.043000000    -0.656000000     4.725000000
C    -1.044000000     2.047000000     4.338000000
H    -0.038000000     2.284000000     4.001000000
O     0.841000000    -0.113000000     4.782000000
H    -0.016000000    -0.561000000     3.016000000
C     0.560000000    -3.256000000     3.679000000
C     1.779000000    -2.808000000     4.461000000
H     2.435000000    -3.669000000     4.604000000
H     1.555000000    -2.556000000     5.500000000
C     2.440000000    -1.600000000     3.818000000
C     2.012000000    -0.299000000     4.186000000
C     2.647000000     0.815000000     3.615000000
H     2.254000000     1.802000000     3.847000000
C     3.597000000     0.596000000     2.605000000
O     4.161000000     1.740000000     1.973000000
C     3.834000000     2.014000000     0.566000000
H     2.886000000     1.541000000     0.270000000
C     3.523000000     3.497000000     0.287000000
C     3.338000000     3.933000000    -1.068000000
H     3.360000000     3.301000000    -1.951000000
C     3.147000000     4.282000000     1.345000000
H     3.080000000     3.872000000     2.350000000
C     2.749000000     5.602000000     1.087000000
O     2.206000000     6.461000000     2.026000000
C     2.530000000     6.096000000    -0.256000000
H     2.092000000     7.068000000    -0.470000000
C     2.879000000     5.258000000    -1.319000000
O     2.708000000     5.803000000    -2.548000000
C     3.041000000     5.070000000    -3.701000000
C     2.088000000     4.468000000    -4.476000000
H     1.061000000     4.382000000    -4.130000000
C     4.361000000     4.946000000    -4.119000000
H     5.090000000     5.503000000    -3.537000000
C     4.665000000     4.163000000    -5.210000000
H     5.703000000     4.064000000    -5.517000000
C     3.669000000     3.550000000    -5.979000000
H     3.883000000     2.923000000    -6.841000000
C     2.363000000     3.723000000    -5.600000000
O     1.351000000     3.096000000    -6.288000000
C     0.797000000     1.850000000    -6.063000000
C    -0.386000000     1.409000000    -6.663000000
H    -0.856000000     2.179000000    -7.270000000
C    -1.004000000     0.273000000    -6.213000000
O    -2.157000000    -0.278000000    -6.859000000
C    -3.066000000    -0.965000000    -6.102000000
C    -3.755000000    -0.471000000    -5.052000000
H    -3.592000000     0.577000000    -4.812000000
C    -3.325000000    -2.263000000    -6.509000000
H    -2.772000000    -2.647000000    -7.362000000
C    -4.213000000    -3.062000000    -5.877000000
H    -4.413000000    -4.022000000    -6.347000000
C    -4.878000000    -2.630000000    -4.741000000
H    -5.728000000    -3.194000000    -4.365000000
C    -4.585000000    -1.359000000    -4.320000000
O    -5.274000000    -0.842000000    -3.212000000
C    -5.094000000    -1.346000000    -1.940000000
C    -6.060000000    -1.144000000    -0.943000000
H    -7.035000000    -0.749000000    -1.217000000
C    -5.839000000    -1.652000000     0.308000000
O    -6.793000000    -1.325000000     1.238000000
C    -6.507000000    -1.220000000     2.622000000
C    -5.867000000    -0.124000000     3.136000000
H    -5.633000000     0.673000000     2.436000000
C    -6.661000000    -2.322000000     3.460000000
H    -7.106000000    -3.242000000     3.089000000
C    -6.480000000    -2.210000000     4.860000000
H    -6.817000000    -3.020000000     5.502000000
C    -5.925000000    -1.035000000     5.403000000
H    -5.730000000    -1.015000000     6.472000000
C    -5.600000000    -0.011000000     4.501000000
O    -4.961000000     1.138000000     5.073000000
C    -3.666000000     1.416000000     4.786000000
C    -3.299000000     2.768000000     4.730000000
H    -4.042000000     3.561000000     4.716000000
C    -1.998000000     3.088000000     4.475000000
O    -1.571000000     4.420000000     4.395000000
C    -0.286000000     4.920000000     4.352000000
C     0.546000000     4.722000000     5.444000000
H     0.299000000     4.209000000     6.369000000
C     1.905000000     5.113000000     5.440000000
H     2.493000000     5.001000000     6.347000000
C     2.401000000     5.859000000     4.353000000
H     3.440000000     6.177000000     4.339000000
C     1.565000000     6.042000000     3.153000000
C     0.224000000     5.515000000     3.170000000
H    -0.414000000     5.648000000     2.300000000
C    -1.505000000     1.101000000     0.748000000
H    -2.237000000     1.079000000     1.551000000
C    -0.734000000    -0.045000000     0.493000000
H    -0.972000000    -0.937000000     1.066000000
C     0.299000000     0.016000000    -0.496000000
H     0.873000000    -0.908000000    -0.811000000
C     0.490000000     1.181000000    -1.185000000
H     1.377000000     1.297000000    -1.804000000
C    -0.321000000     2.275000000    -0.974000000
H    -0.199000000     3.180000000    -1.564000000
C    -1.330000000     2.262000000    -0.057000000
C    -2.326000000     3.329000000     0.123000000
O    -2.503000000     4.255000000    -0.738000000
O    -3.059000000     3.301000000     1.105000000
O    -8.738000000     2.794000000     1.466000000
H    -7.894000000     3.065000000     1.106000000
H    -8.534000000     2.032000000     2.008000000
O    -7.687000000     3.362000000     5.026000000
H    -8.355000000     4.046000000     4.982000000
H    -7.033000000     3.624000000     4.378000000
O    -6.333000000     3.172000000    -2.280000000
H    -7.106000000     3.735000000    -2.334000000
H    -6.451000000     2.536000000    -2.985000000
O    -3.433000000     5.893000000    -5.364000000
H    -2.949000000     5.466000000    -4.657000000
H    -3.264000000     5.349000000    -6.133000000
O    -5.035000000     5.592000000    -1.638000000
H    -5.446000000     4.742000000    -1.795000000
H    -4.341000000     5.409000000    -1.004000000
O    -6.873000000     7.376000000    -0.619000000
H    -6.211000000     7.999000000    -0.321000000
H    -6.377000000     6.702000000    -1.084000000
O     0.059000000     7.159000000    -2.830000000
H     0.995000000     7.171000000    -2.632000000
H     0.009000000     7.363000000    -3.764000000
O    -6.080000000     4.286000000     2.821000000
H    -5.283000000     4.814000000     2.863000000
H    -6.012000000     3.816000000     1.989000000
O    -2.045000000     8.043000000     1.928000000
H    -1.677000000     8.861000000     1.595000000
H    -1.878000000     7.405000000     1.234000000
O    -4.892000000     2.341000000    -6.319000000
H    -4.609000000     2.757000000    -5.505000000
H    -5.712000000     2.782000000    -6.541000000
O    -1.416000000     6.639000000    -0.238000000
H    -1.869000000     5.845000000    -0.519000000
H    -0.843000000     6.861000000    -0.972000000
O    -1.528000000     4.747000000    -3.185000000
H    -1.071000000     5.580000000    -3.068000000
H    -1.708000000     4.445000000    -2.295000000
O    -3.765000000     3.446000000    -3.923000000
H    -4.137000000     3.608000000    -3.056000000
H    -2.843000000     3.685000000    -3.836000000
O    -5.705000000     2.989000000     0.588000000
H    -5.941000000     2.860000000    -0.330000000
H    -4.750000000     3.054000000     0.584000000
O    -4.001000000     8.355000000     3.815000000
H    -3.222000000     8.148000000     3.300000000
H    -4.734000000     8.154000000     3.233000000
O    -7.201000000     6.850000000     2.995000000
H    -6.724000000     6.048000000     2.779000000
H    -7.915000000     6.882000000     2.358000000
O    -4.250000000     8.295000000    -0.817000000
H    -4.216000000     8.419000000    -1.766000000
H    -3.577000000     7.639000000    -0.637000000
O    -3.742000000     5.365000000     2.373000000
H    -3.522000000     4.578000000     1.875000000
H    -2.896000000     5.733000000     2.627000000
O    -4.164000000     7.889000000    -3.470000000
H    -4.472000000     7.113000000    -3.938000000
H    -3.270000000     8.021000000    -3.787000000
