215
-1459.68041
C     2.655000000    -4.457000000     1.441000000
H     3.467000000    -3.791000000     1.721000000
C     2.005000000    -4.406000000     0.159000000
C     0.863000000    -5.276000000    -0.054000000
H     0.310000000    -5.362000000    -0.986000000
C     2.444000000    -3.389000000    -0.989000000
O     3.798000000    -2.991000000    -0.990000000
H     1.825000000    -2.480000000    -0.945000000
O     2.193000000    -3.910000000    -2.323000000
C     1.672000000    -3.088000000    -3.299000000
C     0.312000000    -3.136000000    -3.476000000
H    -0.301000000    -3.845000000    -2.926000000
C    -0.435000000    -2.242000000    -4.164000000
O    -1.786000000    -2.445000000    -4.132000000
C     0.275000000    -1.238000000    -4.964000000
C    -0.473000000    -0.243000000    -5.825000000
H     0.159000000     0.205000000    -6.595000000
C    -0.871000000     0.905000000    -4.875000000
C    -0.117000000     2.063000000    -4.789000000
H     0.782000000     2.174000000    -5.390000000
H    -1.372000000    -0.674000000    -6.270000000
C     1.679000000    -1.169000000    -4.782000000
H     2.178000000    -0.268000000    -5.131000000
C     2.367000000    -2.031000000    -3.899000000
C     3.842000000    -1.914000000    -3.678000000
H     4.199000000    -1.385000000    -4.564000000
H     4.341000000    -2.884000000    -3.638000000
C     4.182000000    -1.083000000    -2.457000000
C     4.438000000     0.277000000    -2.594000000
H     4.440000000     0.760000000    -3.568000000
C     4.065000000    -1.653000000    -1.170000000
C     4.370000000    -0.886000000    -0.069000000
H     4.359000000    -1.302000000     0.935000000
C     4.459000000     0.489000000    -0.161000000
O     4.399000000     1.177000000     1.007000000
C     3.200000000     1.970000000     1.261000000
C     2.758000000     1.719000000     2.704000000
C     2.113000000     2.783000000     3.405000000
H     2.149000000     3.784000000     2.985000000
C     2.662000000     0.461000000     3.253000000
H     3.015000000    -0.430000000     2.739000000
O     3.441000000     3.344000000     0.951000000
H     2.326000000     1.528000000     0.760000000
C     4.551000000     1.079000000    -1.439000000
C     4.739000000     2.608000000    -1.554000000
H     5.237000000     2.848000000    -2.496000000
H     5.409000000     2.718000000    -0.699000000
C     3.390000000     3.322000000    -1.470000000
C     2.621000000     3.566000000    -2.631000000
H     2.994000000     3.114000000    -3.547000000
C     2.895000000     3.770000000    -0.244000000
C     1.607000000     4.439000000    -0.202000000
H     1.220000000     4.815000000     0.741000000
C     0.912000000     4.579000000    -1.354000000
O    -0.340000000     5.096000000    -1.192000000
C    -1.424000000     4.157000000    -1.093000000
C    -2.291000000     4.642000000     0.065000000
C    -1.891000000     5.590000000     1.047000000
H    -0.913000000     6.062000000     1.104000000
C    -3.568000000     4.102000000     0.175000000
H    -3.986000000     3.412000000    -0.552000000
O    -2.096000000     4.073000000    -2.416000000
H    -0.990000000     3.177000000    -0.843000000
C     1.374000000     4.201000000    -2.567000000
C     0.559000000     4.244000000    -3.871000000
H     1.209000000     4.254000000    -4.748000000
H    -0.012000000     5.175000000    -3.852000000
C    -0.467000000     3.130000000    -3.995000000
C    -1.668000000     3.084000000    -3.278000000
C    -2.442000000     1.909000000    -3.328000000
H    -3.389000000     1.893000000    -2.794000000
C    -2.051000000     0.835000000    -4.183000000
O    -2.934000000    -0.285000000    -4.295000000
C    -2.547000000    -1.447000000    -3.472000000
H    -1.924000000    -0.950000000    -2.713000000
C    -3.710000000    -2.044000000    -2.664000000
C    -3.660000000    -3.330000000    -2.339000000
H    -2.883000000    -4.033000000    -2.630000000
C    -4.589000000    -1.166000000    -1.987000000
H    -4.522000000    -0.085000000    -2.071000000
C    -5.572000000    -1.679000000    -1.124000000
O    -6.389000000    -0.776000000    -0.452000000
C    -5.613000000    -2.995000000    -0.911000000
H    -6.372000000    -3.350000000    -0.219000000
C    -4.714000000    -3.833000000    -1.477000000
O    -4.694000000    -5.202000000    -1.174000000
C    -3.590000000    -6.010000000    -1.304000000
C    -2.669000000    -6.046000000    -0.247000000
H    -2.815000000    -5.480000000     0.669000000
C    -3.455000000    -6.847000000    -2.390000000
H    -4.161000000    -6.909000000    -3.214000000
C    -2.390000000    -7.729000000    -2.336000000
H    -2.237000000    -8.322000000    -3.233000000
C    -1.396000000    -7.734000000    -1.345000000
H    -0.511000000    -8.354000000    -1.468000000
C    -1.550000000    -6.881000000    -0.311000000
O    -0.710000000    -6.906000000     0.747000000
C     0.346000000    -6.105000000     0.937000000
C     1.124000000    -6.241000000     2.082000000
H     0.869000000    -6.895000000     2.912000000
C     2.190000000    -5.384000000     2.335000000
O     2.680000000    -5.428000000     3.624000000
C     3.166000000    -4.352000000     4.348000000
C     2.273000000    -3.271000000     4.496000000
H     1.215000000    -3.297000000     4.249000000
C     4.548000000    -4.155000000     4.465000000
H     5.216000000    -4.992000000     4.283000000
C     5.036000000    -2.974000000     5.013000000
H     6.112000000    -2.998000000     5.169000000
C     4.168000000    -1.909000000     5.195000000
H     4.658000000    -0.983000000     5.485000000
C     2.819000000    -2.051000000     4.874000000
O     1.951000000    -0.985000000     5.090000000
C     2.048000000     0.273000000     4.493000000
C     1.492000000     1.332000000     5.215000000
H     1.023000000     1.227000000     6.190000000
C     1.578000000     2.601000000     4.735000000
O     0.702000000     3.575000000     5.299000000
C     0.385000000     4.848000000     4.879000000
C    -0.743000000     5.053000000     4.115000000
H    -1.349000000     4.206000000     3.806000000
C     1.270000000     5.881000000     5.269000000
H     2.172000000     5.677000000     5.840000000
C     0.915000000     7.188000000     4.892000000
H     1.557000000     8.054000000     5.034000000
C    -0.366000000     7.431000000     4.238000000
H    -0.642000000     8.452000000     3.987000000
C    -1.135000000     6.387000000     3.789000000
O    -2.346000000     6.610000000     3.226000000
C    -2.689000000     5.812000000     2.171000000
C    -3.950000000     5.245000000     2.213000000
H    -4.474000000     5.417000000     3.150000000
C    -4.323000000     4.279000000     1.302000000
O    -5.369000000     3.479000000     1.529000000
C    -5.279000000     2.123000000     1.571000000
C    -4.748000000     1.425000000     2.734000000
H    -4.254000000     1.989000000     3.522000000
C    -4.832000000     0.059000000     2.815000000
H    -4.416000000    -0.376000000     3.720000000
C    -5.273000000    -0.737000000     1.680000000
H    -5.357000000    -1.820000000     1.726000000
C    -5.778000000    -0.077000000     0.576000000
C    -5.776000000     1.330000000     0.494000000
H    -6.325000000     1.875000000    -0.269000000
C    -0.968000000     0.550000000     1.889000000
H    -1.077000000     1.281000000     2.686000000
C    -0.559000000     0.950000000     0.641000000
H    -0.256000000     1.975000000     0.448000000
C    -0.432000000     0.056000000    -0.462000000
H     0.025000000     0.307000000    -1.423000000
C    -0.785000000    -1.258000000    -0.242000000
H    -0.716000000    -1.970000000    -1.061000000
C    -1.146000000    -1.686000000     1.054000000
H    -1.470000000    -2.709000000     1.226000000
C    -1.240000000    -0.804000000     2.136000000
C    -1.535000000    -1.290000000     3.511000000
O    -1.850000000    -2.456000000     3.720000000
O    -1.631000000    -0.526000000     4.407000000
O    -2.039000000     1.942000000     5.359000000
H    -1.165000000     2.106000000     5.712000000
H    -1.917000000     1.221000000     4.741000000
O     2.262000000    -5.435000000     7.972000000
H     2.260000000    -4.481000000     7.891000000
H     1.356000000    -5.691000000     7.802000000
O    -2.139000000    -4.921000000     3.035000000
H    -1.805000000    -5.374000000     3.808000000
H    -2.065000000    -3.992000000     3.251000000
O    -3.157000000    -1.569000000     9.343000000
H    -3.886000000    -2.187000000     9.297000000
H    -3.574000000    -0.708000000     9.375000000
O    -1.611000000    -8.330000000     3.037000000
H    -2.100000000    -7.849000000     3.704000000
H    -1.118000000    -7.656000000     2.570000000
O    -3.248000000    -6.918000000     6.007000000
H    -2.385000000    -6.886000000     5.594000000
H    -3.835000000    -6.514000000     5.368000000
O    -0.482000000    -0.676000000     6.807000000
H    -1.067000000    -0.487000000     6.073000000
H     0.398000000    -0.594000000     6.439000000
O    -0.800000000     2.848000000     8.521000000
H    -1.564000000     2.970000000     7.958000000
H    -0.708000000     1.898000000     8.597000000
O     1.401000000    -2.764000000     8.685000000
H     0.499000000    -2.796000000     8.366000000
H     1.316000000    -2.707000000     9.637000000
O    -4.009000000    -3.856000000     5.398000000
H    -3.337000000    -3.711000000     6.065000000
H    -3.636000000    -3.486000000     4.598000000
O    -0.640000000    -6.202000000     5.096000000
H    -0.112000000    -6.702000000     5.719000000
H    -0.482000000    -5.287000000     5.329000000
O    -7.020000000    -3.999000000     4.497000000
H    -6.869000000    -4.703000000     3.867000000
H    -6.171000000    -3.869000000     4.919000000
O    -1.048000000    -3.315000000     9.994000000
H    -1.710000000    -2.683000000     9.711000000
H    -0.952000000    -3.156000000    10.933000000
O    -1.189000000    -3.395000000     6.212000000
H    -1.378000000    -3.128000000     5.312000000
H    -1.081000000    -2.572000000     6.688000000
O    -4.871000000    -5.181000000     2.287000000
H    -4.880000000    -6.065000000     2.653000000
H    -3.944000000    -4.944000000     2.255000000
O    -5.668000000     0.649000000     7.553000000
H    -6.536000000     0.270000000     7.415000000
H    -5.069000000     0.039000000     7.122000000
O    -3.438000000    -1.037000000     6.466000000
H    -2.963000000    -1.166000000     5.645000000
H    -2.809000000    -1.275000000     7.147000000
O    -0.045000000    -0.001000000     9.358000000
H    -0.548000000    -0.543000000     9.966000000
H    -0.360000000    -0.259000000     8.492000000
O    -4.636000000     2.937000000     5.906000000
H    -5.068000000     2.465000000     6.618000000
H    -3.710000000     2.710000000     5.996000000
