215
-1475.40661
C     1.934000000    -4.256000000     1.580000000
H     2.766000000    -3.629000000     1.891000000
C     1.468000000    -4.304000000     0.265000000
C     0.310000000    -5.012000000     0.014000000
H    -0.172000000    -5.006000000    -0.960000000
C     2.165000000    -3.425000000    -0.776000000
O     3.496000000    -3.171000000    -0.432000000
H     1.524000000    -2.537000000    -0.882000000
O     2.069000000    -4.015000000    -2.035000000
C     1.680000000    -3.229000000    -3.134000000
C     0.305000000    -3.179000000    -3.535000000
H    -0.393000000    -3.865000000    -3.062000000
C    -0.231000000    -2.171000000    -4.356000000
O    -1.581000000    -2.129000000    -4.483000000
C     0.621000000    -1.230000000    -4.893000000
C     0.022000000    -0.124000000    -5.778000000
H     0.807000000     0.204000000    -6.463000000
C    -0.413000000     1.125000000    -4.991000000
C     0.535000000     2.146000000    -4.778000000
H     1.526000000     2.035000000    -5.210000000
H    -0.840000000    -0.425000000    -6.377000000
C     1.994000000    -1.239000000    -4.531000000
H     2.596000000    -0.472000000    -5.011000000
C     2.517000000    -2.253000000    -3.680000000
C     3.906000000    -2.143000000    -3.159000000
H     4.536000000    -1.734000000    -3.952000000
H     4.266000000    -3.134000000    -2.875000000
C     4.055000000    -1.321000000    -1.910000000
C     4.528000000    -0.070000000    -2.030000000
H     4.612000000     0.402000000    -3.006000000
C     3.885000000    -1.896000000    -0.663000000
C     4.090000000    -1.106000000     0.487000000
H     4.038000000    -1.495000000     1.501000000
C     4.564000000     0.186000000     0.323000000
O     4.557000000     1.016000000     1.522000000
C     3.323000000     1.796000000     1.748000000
C     2.801000000     1.667000000     3.168000000
C     1.833000000     2.610000000     3.634000000
H     1.513000000     3.468000000     3.049000000
C     3.057000000     0.521000000     3.871000000
H     3.611000000    -0.348000000     3.528000000
O     3.575000000     3.139000000     1.324000000
H     2.490000000     1.485000000     1.100000000
C     4.696000000     0.764000000    -0.945000000
C     4.987000000     2.235000000    -1.096000000
H     5.469000000     2.386000000    -2.064000000
H     5.725000000     2.575000000    -0.367000000
C     3.770000000     3.151000000    -1.036000000
C     3.117000000     3.405000000    -2.318000000
H     3.671000000     3.203000000    -3.231000000
C     3.149000000     3.605000000     0.110000000
C     2.036000000     4.390000000     0.047000000
H     1.626000000     4.829000000     0.953000000
C     1.342000000     4.570000000    -1.157000000
O     0.141000000     5.246000000    -1.153000000
C    -1.085000000     4.472000000    -1.281000000
C    -2.167000000     4.888000000    -0.282000000
C    -1.809000000     5.712000000     0.774000000
H    -0.819000000     6.161000000     0.784000000
C    -3.377000000     4.181000000    -0.223000000
H    -3.656000000     3.411000000    -0.937000000
O    -1.555000000     4.395000000    -2.665000000
H    -0.911000000     3.404000000    -1.084000000
C     1.891000000     4.114000000    -2.367000000
C     1.232000000     4.304000000    -3.711000000
H     2.067000000     4.194000000    -4.406000000
H     0.864000000     5.329000000    -3.790000000
C     0.119000000     3.266000000    -4.000000000
C    -1.230000000     3.373000000    -3.505000000
C    -2.149000000     2.341000000    -3.745000000
H    -3.185000000     2.520000000    -3.470000000
C    -1.700000000     1.155000000    -4.381000000
O    -2.549000000     0.055000000    -4.369000000
C    -2.261000000    -1.152000000    -3.628000000
H    -1.553000000    -0.855000000    -2.840000000
C    -3.487000000    -1.739000000    -3.007000000
C    -3.725000000    -3.133000000    -3.128000000
H    -2.976000000    -3.759000000    -3.606000000
C    -4.326000000    -0.988000000    -2.201000000
H    -4.045000000     0.016000000    -1.891000000
C    -5.527000000    -1.528000000    -1.666000000
O    -6.342000000    -0.735000000    -0.921000000
C    -5.777000000    -2.881000000    -1.835000000
H    -6.532000000    -3.378000000    -1.231000000
C    -4.830000000    -3.713000000    -2.507000000
O    -4.867000000    -5.055000000    -2.500000000
C    -3.878000000    -5.971000000    -2.110000000
C    -2.956000000    -5.647000000    -1.068000000
H    -3.008000000    -4.741000000    -0.469000000
C    -3.674000000    -7.085000000    -2.872000000
H    -4.343000000    -7.314000000    -3.698000000
C    -2.790000000    -8.074000000    -2.407000000
H    -2.727000000    -9.026000000    -2.929000000
C    -1.969000000    -7.892000000    -1.251000000
H    -1.345000000    -8.713000000    -0.907000000
C    -2.038000000    -6.622000000    -0.581000000
O    -1.504000000    -6.515000000     0.641000000
C    -0.272000000    -5.868000000     0.882000000
C     0.200000000    -5.889000000     2.158000000
H    -0.331000000    -6.474000000     2.905000000
C     1.248000000    -5.011000000     2.543000000
O     1.566000000    -4.899000000     3.885000000
C     2.626000000    -4.104000000     4.456000000
C     2.120000000    -2.929000000     4.996000000
H     1.074000000    -2.680000000     4.836000000
C     3.963000000    -4.463000000     4.441000000
H     4.388000000    -5.365000000     4.009000000
C     4.855000000    -3.516000000     4.957000000
H     5.923000000    -3.706000000     5.031000000
C     4.348000000    -2.337000000     5.552000000
H     5.010000000    -1.622000000     6.034000000
C     3.018000000    -2.035000000     5.589000000
O     2.613000000    -0.759000000     5.981000000
C     2.435000000     0.361000000     5.177000000
C     1.484000000     1.256000000     5.625000000
H     1.091000000     1.174000000     6.635000000
C     1.106000000     2.323000000     4.805000000
O     0.154000000     3.253000000     5.309000000
C    -0.104000000     4.551000000     4.966000000
C    -1.147000000     4.916000000     4.084000000
H    -1.837000000     4.124000000     3.803000000
C     0.759000000     5.550000000     5.487000000
H     1.595000000     5.259000000     6.118000000
C     0.585000000     6.853000000     5.132000000
H     1.207000000     7.664000000     5.504000000
C    -0.390000000     7.209000000     4.172000000
H    -0.304000000     8.198000000     3.729000000
C    -1.292000000     6.258000000     3.695000000
O    -2.243000000     6.707000000     2.829000000
C    -2.691000000     5.891000000     1.787000000
C    -3.905000000     5.198000000     1.887000000
H    -4.579000000     5.302000000     2.734000000
C    -4.198000000     4.327000000     0.866000000
O    -5.343000000     3.620000000     0.997000000
C    -5.352000000     2.254000000     1.115000000
C    -4.739000000     1.668000000     2.259000000
H    -4.345000000     2.225000000     3.106000000
C    -4.684000000     0.254000000     2.334000000
H    -4.381000000    -0.259000000     3.243000000
C    -5.285000000    -0.489000000     1.257000000
H    -5.117000000    -1.560000000     1.180000000
C    -5.871000000     0.067000000     0.176000000
C    -5.881000000     1.475000000     0.057000000
H    -6.291000000     1.951000000    -0.830000000
C    -0.861000000     1.134000000     2.117000000
H    -1.362000000     1.603000000     2.960000000
C    -0.365000000     1.812000000     1.007000000
H    -0.444000000     2.896000000     0.998000000
C     0.192000000     1.099000000    -0.073000000
H     0.455000000     1.570000000    -1.017000000
C     0.276000000    -0.276000000    -0.023000000
H     0.654000000    -0.798000000    -0.899000000
C    -0.104000000    -0.988000000     1.125000000
H    -0.081000000    -2.073000000     1.182000000
C    -0.641000000    -0.274000000     2.246000000
C    -1.071000000    -0.969000000     3.531000000
O    -1.216000000    -2.184000000     3.502000000
O    -1.279000000    -0.332000000     4.496000000
O    -2.391000000     1.770000000     5.785000000
H    -1.634000000     2.354000000     5.811000000
H    -2.076000000     0.989000000     5.329000000
O    -7.047000000    -0.979000000     4.430000000
H    -6.602000000    -1.424000000     3.709000000
H    -7.979000000    -1.098000000     4.246000000
O     0.524000000    -6.304000000     6.478000000
H     0.135000000    -6.176000000     5.613000000
H     0.402000000    -5.465000000     6.922000000
O    -2.550000000    -4.085000000     8.266000000
H    -3.302000000    -4.285000000     7.709000000
H    -2.881000000    -4.181000000     9.159000000
O    -2.715000000    -3.708000000     1.897000000
H    -2.172000000    -4.493000000     1.974000000
H    -2.184000000    -3.010000000     2.280000000
O    -6.596000000    -1.762000000     7.249000000
H    -6.394000000    -1.532000000     6.342000000
H    -6.672000000    -0.921000000     7.698000000
O    -4.429000000    -4.829000000     6.137000000
H    -4.692000000    -4.031000000     5.678000000
H    -4.281000000    -5.468000000     5.440000000
O    -0.297000000    -1.289000000     7.225000000
H    -0.669000000    -1.013000000     6.387000000
H     0.650000000    -1.261000000     7.087000000
O     2.851000000    -3.722000000     8.201000000
H     1.928000000    -3.838000000     7.974000000
H     3.264000000    -4.549000000     7.952000000
O    -3.833000000    -2.211000000     4.816000000
H    -2.973000000    -2.006000000     4.450000000
H    -3.937000000    -1.598000000     5.544000000
O    -2.966000000    -6.429000000     3.919000000
H    -3.016000000    -7.223000000     4.452000000
H    -2.200000000    -5.963000000     4.255000000
O    -6.001000000    -3.550000000     3.290000000
H    -5.748000000    -4.361000000     2.847000000
H    -5.178000000    -3.076000000     3.408000000
O     0.185000000    -3.881000000     8.042000000
H    -0.675000000    -4.281000000     8.167000000
H    -0.006000000    -2.976000000     7.795000000
O     0.165000000     1.450000000     9.236000000
H    -0.209000000     0.616000000     9.521000000
H    -0.448000000     2.110000000     9.559000000
O    -1.317000000    -4.548000000     5.194000000
H    -0.972000000    -3.726000000     4.845000000
H    -2.177000000    -4.317000000     5.547000000
O    -5.186000000    -5.844000000     2.061000000
H    -4.898000000    -6.391000000     2.793000000
H    -4.400000000    -5.367000000     1.795000000
O    -4.142000000    -0.104000000     6.828000000
H    -3.490000000     0.550000000     6.576000000
H    -4.086000000    -0.144000000     7.782000000
O    -4.776000000     3.634000000     5.784000000
H    -5.705000000     3.466000000     5.943000000
H    -4.414000000     2.779000000     5.553000000
O    -2.476000000    -1.519000000     9.766000000
H    -3.235000000    -2.101000000     9.714000000
H    -2.111000000    -1.523000000     8.882000000
