215
-1457.54289
C     2.642000000    -2.779000000     2.170000000
H     2.747000000    -1.715000000     2.365000000
C     2.868000000    -3.296000000     0.873000000
C     2.663000000    -4.655000000     0.618000000
H     2.970000000    -5.224000000    -0.256000000
C     3.251000000    -2.336000000    -0.272000000
O     4.368000000    -1.606000000     0.076000000
H     2.461000000    -1.606000000    -0.507000000
O     3.437000000    -3.019000000    -1.455000000
C     2.846000000    -2.518000000    -2.566000000
C     1.754000000    -3.165000000    -3.100000000
H     1.486000000    -4.078000000    -2.574000000
C     1.041000000    -2.696000000    -4.200000000
O    -0.250000000    -3.175000000    -4.378000000
C     1.465000000    -1.520000000    -4.771000000
C     0.499000000    -0.852000000    -5.850000000
H     1.114000000    -0.435000000    -6.650000000
C    -0.401000000     0.144000000    -5.218000000
C    -0.043000000     1.475000000    -5.059000000
H     0.875000000     1.866000000    -5.490000000
H    -0.157000000    -1.588000000    -6.319000000
C     2.632000000    -0.893000000    -4.270000000
H     2.893000000     0.021000000    -4.797000000
C     3.421000000    -1.485000000    -3.298000000
C     4.762000000    -0.797000000    -2.915000000
H     5.085000000    -0.237000000    -3.795000000
H     5.660000000    -1.353000000    -2.641000000
C     4.514000000     0.156000000    -1.694000000
C     4.309000000     1.507000000    -1.941000000
H     4.375000000     1.891000000    -2.956000000
C     4.458000000    -0.281000000    -0.321000000
C     4.211000000     0.603000000     0.701000000
H     4.048000000     0.232000000     1.710000000
C     3.984000000     1.949000000     0.404000000
O     3.636000000     2.895000000     1.445000000
C     2.263000000     3.284000000     1.629000000
C     1.787000000     3.243000000     3.061000000
C     0.637000000     3.942000000     3.390000000
H     0.087000000     4.484000000     2.625000000
C     2.399000000     2.405000000     4.051000000
H     3.257000000     1.842000000     3.691000000
O     2.003000000     4.609000000     0.941000000
H     1.628000000     2.573000000     1.080000000
C     4.020000000     2.412000000    -0.927000000
C     3.688000000     3.807000000    -1.364000000
H     4.093000000     4.080000000    -2.340000000
H     4.188000000     4.509000000    -0.693000000
C     2.195000000     4.066000000    -1.402000000
C     1.542000000     3.763000000    -2.579000000
H     2.168000000     3.460000000    -3.415000000
C     1.430000000     4.571000000    -0.307000000
C     0.064000000     4.857000000    -0.529000000
H    -0.598000000     5.142000000     0.285000000
C    -0.506000000     4.588000000    -1.724000000
O    -1.907000000     4.514000000    -1.711000000
C    -2.388000000     3.183000000    -1.555000000
C    -3.519000000     3.182000000    -0.616000000
C    -3.481000000     4.096000000     0.454000000
H    -2.616000000     4.741000000     0.583000000
C    -4.581000000     2.293000000    -0.703000000
H    -4.532000000     1.592000000    -1.532000000
O    -2.754000000     2.608000000    -2.805000000
H    -1.623000000     2.655000000    -0.967000000
C     0.191000000     4.063000000    -2.793000000
C    -0.490000000     3.758000000    -4.215000000
H     0.111000000     4.057000000    -5.076000000
H    -1.372000000     4.397000000    -4.293000000
C    -0.811000000     2.356000000    -4.243000000
C    -1.967000000     1.842000000    -3.595000000
C    -2.386000000     0.556000000    -3.818000000
H    -3.332000000     0.170000000    -3.445000000
C    -1.630000000    -0.238000000    -4.654000000
O    -2.066000000    -1.586000000    -4.639000000
C    -1.324000000    -2.474000000    -3.742000000
H    -0.962000000    -1.781000000    -2.968000000
C    -2.283000000    -3.350000000    -2.924000000
C    -1.817000000    -4.627000000    -2.468000000
H    -0.846000000    -4.930000000    -2.852000000
C    -3.540000000    -2.884000000    -2.463000000
H    -3.986000000    -1.973000000    -2.853000000
C    -4.309000000    -3.649000000    -1.644000000
O    -5.504000000    -3.198000000    -1.257000000
C    -3.944000000    -4.971000000    -1.336000000
H    -4.603000000    -5.530000000    -0.677000000
C    -2.701000000    -5.474000000    -1.681000000
O    -2.252000000    -6.679000000    -1.138000000
C    -0.946000000    -7.092000000    -0.955000000
C    -0.244000000    -6.740000000     0.188000000
H    -0.657000000    -6.100000000     0.964000000
C    -0.299000000    -7.932000000    -1.925000000
H    -0.841000000    -8.233000000    -2.817000000
C     0.992000000    -8.331000000    -1.730000000
H     1.370000000    -8.893000000    -2.581000000
C     1.641000000    -8.052000000    -0.560000000
H     2.654000000    -8.409000000    -0.391000000
C     1.043000000    -7.222000000     0.361000000
O     1.885000000    -6.738000000     1.333000000
C     2.035000000    -5.418000000     1.615000000
C     1.826000000    -4.892000000     2.935000000
H     1.473000000    -5.581000000     3.698000000
C     2.077000000    -3.515000000     3.193000000
O     1.819000000    -3.017000000     4.463000000
C     2.680000000    -2.054000000     5.064000000
C     2.159000000    -0.813000000     5.214000000
H     1.153000000    -0.561000000     4.890000000
C     3.975000000    -2.391000000     5.563000000
H     4.177000000    -3.452000000     5.691000000
C     4.725000000    -1.444000000     6.227000000
H     5.644000000    -1.789000000     6.694000000
C     4.172000000    -0.133000000     6.364000000
H     4.632000000     0.568000000     7.055000000
C     2.847000000     0.153000000     5.968000000
O     2.321000000     1.399000000     6.258000000
C     1.865000000     2.330000000     5.338000000
C     0.787000000     3.052000000     5.613000000
H     0.332000000     2.987000000     6.598000000
C     0.141000000     3.902000000     4.668000000
O    -1.017000000     4.542000000     5.089000000
C    -1.698000000     5.379000000     4.283000000
C    -2.875000000     4.930000000     3.825000000
H    -3.292000000     3.993000000     4.184000000
C    -1.116000000     6.601000000     3.871000000
H    -0.127000000     6.936000000     4.174000000
C    -1.858000000     7.335000000     2.948000000
H    -1.453000000     8.299000000     2.651000000
C    -3.070000000     6.881000000     2.432000000
H    -3.708000000     7.504000000     1.810000000
C    -3.623000000     5.686000000     2.889000000
O    -4.693000000     5.176000000     2.289000000
C    -4.624000000     4.197000000     1.287000000
C    -5.647000000     3.267000000     1.216000000
H    -6.484000000     3.236000000     1.910000000
C    -5.620000000     2.295000000     0.230000000
O    -6.484000000     1.225000000     0.171000000
C    -5.987000000    -0.013000000     0.438000000
C    -5.295000000    -0.287000000     1.663000000
H    -5.301000000     0.590000000     2.305000000
C    -4.731000000    -1.555000000     1.911000000
H    -4.259000000    -1.615000000     2.888000000
C    -4.824000000    -2.535000000     0.889000000
H    -4.334000000    -3.503000000     0.949000000
C    -5.495000000    -2.221000000    -0.294000000
C    -6.136000000    -1.030000000    -0.494000000
H    -6.503000000    -0.706000000    -1.465000000
C    -0.395000000     0.124000000     1.734000000
H    -0.317000000     0.941000000     2.447000000
C    -0.135000000     0.309000000     0.375000000
H     0.207000000     1.276000000     0.014000000
C    -0.322000000    -0.697000000    -0.545000000
H    -0.075000000    -0.464000000    -1.605000000
C    -0.872000000    -1.890000000    -0.098000000
H    -0.847000000    -2.733000000    -0.785000000
C    -1.247000000    -2.062000000     1.225000000
H    -1.544000000    -2.992000000     1.703000000
C    -1.034000000    -1.086000000     2.164000000
C    -1.376000000    -1.313000000     3.630000000
O    -1.734000000    -2.431000000     4.030000000
O    -1.298000000    -0.357000000     4.366000000
O    -1.716000000    -4.602000000     8.931000000
H    -1.347000000    -3.924000000     8.364000000
H    -0.984000000    -5.195000000     9.101000000
O    -2.652000000     1.621000000     5.431000000
H    -2.005000000     2.286000000     5.197000000
H    -2.347000000     0.825000000     4.995000000
O     2.309000000    -3.643000000     8.690000000
H     1.407000000    -3.343000000     8.580000000
H     2.789000000    -2.863000000     8.968000000
O    -3.553000000    -4.250000000     3.407000000
H    -4.370000000    -4.040000000     3.860000000
H    -2.957000000    -3.540000000     3.648000000
O    -7.284000000    -0.856000000     6.119000000
H    -6.386000000    -0.534000000     6.198000000
H    -7.472000000    -1.254000000     6.969000000
O    -4.652000000     0.013000000     6.591000000
H    -4.327000000     0.832000000     6.217000000
H    -3.885000000    -0.560000000     6.615000000
O    -1.768000000    -6.631000000     5.807000000
H    -1.254000000    -5.855000000     5.581000000
H    -2.127000000    -6.932000000     4.972000000
O     2.471000000    -5.631000000     6.434000000
H     3.134000000    -5.125000000     6.904000000
H     1.637000000    -5.298000000     6.764000000
O    -0.583000000     0.223000000     6.904000000
H    -1.462000000     0.302000000     7.276000000
H    -0.728000000     0.117000000     5.964000000
O     1.284000000     0.110000000     8.998000000
H     0.892000000     0.729000000     9.614000000
H     0.769000000     0.211000000     8.197000000
O    -4.348000000    -6.782000000     2.420000000
H    -5.260000000    -6.872000000     2.698000000
H    -4.098000000    -5.902000000     2.701000000
O    -2.311000000     0.576000000     9.506000000
H    -2.368000000    -0.343000000     9.767000000
H    -3.049000000     0.997000000     9.946000000
O    -6.006000000    -3.869000000     7.677000000
H    -5.083000000    -4.123000000     7.703000000
H    -6.214000000    -3.822000000     6.744000000
O    -5.188000000     2.373000000     4.741000000
H    -4.264000000     2.214000000     4.933000000
H    -5.479000000     2.963000000     5.436000000
O    -3.662000000    -5.055000000     7.056000000
H    -3.224000000    -5.080000000     7.907000000
H    -3.216000000    -5.725000000     6.537000000
O    -5.939000000    -3.300000000     4.726000000
H    -6.392000000    -2.459000000     4.801000000
H    -6.317000000    -3.706000000     3.946000000
O    -0.672000000    -4.365000000     5.444000000
H     0.210000000    -4.070000000     5.216000000
H    -1.250000000    -3.690000000     5.089000000
O    -0.225000000    -2.748000000     7.586000000
H    -0.333000000    -3.218000000     6.759000000
H    -0.262000000    -1.823000000     7.342000000
O    -3.131000000    -2.382000000     6.816000000
H    -2.912000000    -2.225000000     5.898000000
H    -3.231000000    -3.332000000     6.879000000
