215
-1452.77430
C     3.190000000    -3.101000000     2.124000000
H     3.607000000    -2.122000000     2.343000000
C     3.069000000    -3.587000000     0.849000000
C     2.465000000    -4.851000000     0.649000000
H     2.450000000    -5.329000000    -0.327000000
C     3.464000000    -2.711000000    -0.334000000
O     4.518000000    -1.804000000    -0.103000000
H     2.571000000    -2.068000000    -0.334000000
O     3.736000000    -3.418000000    -1.573000000
C     2.999000000    -2.852000000    -2.584000000
C     1.788000000    -3.423000000    -2.875000000
H     1.408000000    -4.222000000    -2.244000000
C     0.859000000    -2.746000000    -3.759000000
O    -0.408000000    -3.226000000    -3.889000000
C     1.332000000    -1.699000000    -4.496000000
C     0.487000000    -0.992000000    -5.528000000
H     1.089000000    -0.452000000    -6.262000000
C    -0.447000000    -0.004000000    -4.796000000
C     0.073000000     1.281000000    -4.769000000
H     0.981000000     1.541000000    -5.309000000
H    -0.074000000    -1.705000000    -6.136000000
C     2.654000000    -1.247000000    -4.259000000
H     2.963000000    -0.334000000    -4.762000000
C     3.474000000    -1.795000000    -3.302000000
C     4.746000000    -0.977000000    -2.960000000
H     5.067000000    -0.564000000    -3.918000000
H     5.504000000    -1.721000000    -2.705000000
C     4.465000000    -0.005000000    -1.817000000
C     4.370000000     1.365000000    -1.993000000
H     4.702000000     1.734000000    -2.960000000
C     4.317000000    -0.481000000    -0.429000000
C     3.866000000     0.380000000     0.540000000
H     3.648000000     0.032000000     1.546000000
C     3.717000000     1.735000000     0.264000000
O     3.425000000     2.568000000     1.285000000
C     2.123000000     3.145000000     1.336000000
C     1.711000000     3.212000000     2.806000000
C     0.543000000     3.975000000     3.191000000
H    -0.057000000     4.439000000     2.413000000
C     2.251000000     2.306000000     3.749000000
H     2.986000000     1.563000000     3.450000000
O     2.049000000     4.416000000     0.716000000
H     1.456000000     2.418000000     0.850000000
C     3.997000000     2.245000000    -1.025000000
C     3.880000000     3.719000000    -1.378000000
H     4.475000000     3.852000000    -2.284000000
H     4.286000000     4.306000000    -0.551000000
C     2.460000000     4.153000000    -1.736000000
C     1.869000000     4.045000000    -2.984000000
H     2.436000000     3.673000000    -3.834000000
C     1.643000000     4.491000000    -0.624000000
C     0.344000000     4.953000000    -0.787000000
H    -0.331000000     5.299000000    -0.008000000
C    -0.186000000     4.852000000    -2.078000000
O    -1.559000000     4.858000000    -2.097000000
C    -2.232000000     3.554000000    -1.942000000
C    -3.419000000     3.567000000    -0.977000000
C    -3.595000000     4.708000000    -0.161000000
H    -2.858000000     5.507000000    -0.156000000
C    -4.347000000     2.496000000    -0.842000000
H    -4.239000000     1.703000000    -1.578000000
O    -2.742000000     3.078000000    -3.235000000
H    -1.517000000     2.782000000    -1.622000000
C     0.492000000     4.327000000    -3.153000000
C    -0.157000000     3.760000000    -4.423000000
H     0.560000000     3.878000000    -5.238000000
H    -0.910000000     4.467000000    -4.778000000
C    -0.696000000     2.338000000    -4.331000000
C    -1.923000000     2.068000000    -3.779000000
C    -2.413000000     0.709000000    -3.624000000
H    -3.428000000     0.527000000    -3.281000000
C    -1.631000000    -0.316000000    -4.185000000
O    -2.130000000    -1.580000000    -4.116000000
C    -1.413000000    -2.506000000    -3.180000000
H    -0.831000000    -1.900000000    -2.471000000
C    -2.438000000    -3.477000000    -2.510000000
C    -2.124000000    -4.790000000    -2.193000000
H    -1.141000000    -5.146000000    -2.491000000
C    -3.643000000    -2.917000000    -2.076000000
H    -3.764000000    -1.847000000    -2.226000000
C    -4.555000000    -3.744000000    -1.456000000
O    -5.649000000    -3.150000000    -0.889000000
C    -4.251000000    -5.087000000    -1.145000000
H    -5.028000000    -5.662000000    -0.648000000
C    -3.051000000    -5.634000000    -1.517000000
O    -2.694000000    -6.955000000    -1.163000000
C    -1.392000000    -7.310000000    -0.730000000
C    -0.580000000    -6.626000000     0.216000000
H    -0.840000000    -5.668000000     0.659000000
C    -0.937000000    -8.557000000    -1.256000000
H    -1.532000000    -9.076000000    -2.003000000
C     0.252000000    -9.083000000    -0.881000000
H     0.395000000   -10.105000000    -1.221000000
C     1.011000000    -8.460000000     0.097000000
H     1.872000000    -9.007000000     0.473000000
C     0.595000000    -7.281000000     0.655000000
O     1.367000000    -6.802000000     1.712000000
C     1.902000000    -5.542000000     1.779000000
C     2.064000000    -5.021000000     3.086000000
H     1.615000000    -5.608000000     3.883000000
C     2.656000000    -3.788000000     3.267000000
O     2.538000000    -3.209000000     4.512000000
C     3.095000000    -2.024000000     4.926000000
C     2.339000000    -0.939000000     5.410000000
H     1.278000000    -1.064000000     5.613000000
C     4.487000000    -1.934000000     4.873000000
H     5.043000000    -2.804000000     4.532000000
C     5.072000000    -0.755000000     5.179000000
H     6.151000000    -0.870000000     5.243000000
C     4.352000000     0.393000000     5.527000000
H     4.891000000     1.286000000     5.834000000
C     2.981000000     0.290000000     5.645000000
O     2.131000000     1.339000000     5.989000000
C     1.731000000     2.322000000     5.050000000
C     0.648000000     3.105000000     5.380000000
H     0.201000000     2.994000000     6.364000000
C    -0.001000000     3.882000000     4.454000000
O    -1.200000000     4.492000000     4.787000000
C    -1.959000000     5.414000000     4.128000000
C    -2.885000000     5.063000000     3.117000000
H    -3.030000000     4.069000000     2.703000000
C    -1.676000000     6.746000000     4.425000000
H    -0.837000000     6.910000000     5.096000000
C    -2.498000000     7.766000000     3.903000000
H    -2.358000000     8.823000000     4.112000000
C    -3.574000000     7.418000000     3.072000000
H    -4.300000000     8.101000000     2.637000000
C    -3.715000000     6.091000000     2.618000000
O    -4.809000000     5.766000000     1.786000000
C    -4.644000000     4.781000000     0.791000000
C    -5.450000000     3.703000000     0.920000000
H    -6.249000000     3.747000000     1.656000000
C    -5.294000000     2.524000000     0.148000000
O    -6.098000000     1.413000000     0.166000000
C    -5.578000000     0.167000000     0.526000000
C    -4.827000000     0.006000000     1.682000000
H    -4.690000000     0.848000000     2.355000000
C    -4.288000000    -1.228000000     2.054000000
H    -3.642000000    -1.288000000     2.926000000
C    -4.598000000    -2.276000000     1.194000000
H    -4.183000000    -3.247000000     1.449000000
C    -5.396000000    -2.134000000     0.047000000
C    -5.824000000    -0.900000000    -0.284000000
H    -6.486000000    -0.786000000    -1.139000000
C    -0.761000000     0.352000000     1.703000000
H    -1.177000000     1.172000000     2.284000000
C    -0.465000000     0.486000000     0.318000000
H    -0.495000000     1.468000000    -0.146000000
C     0.076000000    -0.580000000    -0.414000000
H     0.434000000    -0.469000000    -1.439000000
C     0.233000000    -1.776000000     0.304000000
H     0.554000000    -2.677000000    -0.213000000
C     0.124000000    -1.840000000     1.694000000
H     0.275000000    -2.817000000     2.147000000
C    -0.444000000    -0.810000000     2.410000000
C    -0.744000000    -0.925000000     3.923000000
O    -0.823000000    -1.992000000     4.504000000
O    -1.244000000     0.056000000     4.473000000
O     0.744000000    -0.507000000    10.339000000
H     1.660000000    -0.536000000    10.063000000
H     0.385000000    -1.353000000    10.071000000
O    -2.836000000     2.185000000     5.182000000
H    -2.201000000     2.899000000     5.245000000
H    -2.311000000     1.415000000     4.964000000
O    -0.599000000    -2.499000000     9.155000000
H    -0.955000000    -3.113000000     8.513000000
H    -1.304000000    -1.868000000     9.298000000
O    -2.227000000    -4.251000000     3.621000000
H    -1.922000000    -3.431000000     3.233000000
H    -1.836000000    -4.262000000     4.495000000
O     1.863000000    -4.492000000     7.196000000
H     1.752000000    -5.182000000     7.850000000
H     2.446000000    -3.858000000     7.613000000
O    -5.310000000    -4.467000000     3.726000000
H    -5.696000000    -3.619000000     3.946000000
H    -4.546000000    -4.537000000     4.300000000
O    -3.288000000    -6.529000000     5.370000000
H    -3.112000000    -5.737000000     4.862000000
H    -3.153000000    -7.246000000     4.750000000
O    -4.363000000    -2.363000000     7.956000000
H    -3.983000000    -1.986000000     7.162000000
H    -4.678000000    -3.225000000     7.684000000
O    -0.638000000     0.435000000     6.930000000
H    -0.041000000    -0.226000000     7.281000000
H    -0.676000000     0.249000000     5.992000000
O     1.884000000     2.313000000     8.823000000
H     2.132000000     3.196000000     8.549000000
H     1.698000000     1.852000000     8.006000000
O    -0.384000000    -6.386000000     5.319000000
H     0.012000000    -5.914000000     6.051000000
H    -1.315000000    -6.168000000     5.369000000
O    -5.136000000     0.929000000     5.435000000
H    -5.761000000     1.509000000     4.998000000
H    -4.326000000     1.438000000     5.476000000
O     3.661000000    -2.456000000     8.053000000
H     3.503000000    -2.296000000     7.122000000
H     3.670000000    -1.584000000     8.448000000
O    -2.371000000     1.939000000     8.098000000
H    -2.919000000     2.016000000     7.316000000
H    -1.608000000     1.439000000     7.807000000
O    -6.466000000    -2.211000000     4.673000000
H    -5.679000000    -1.863000000     5.092000000
H    -7.188000000    -1.748000000     5.098000000
O    -3.468000000    -2.220000000    10.339000000
H    -3.472000000    -1.353000000    10.744000000
H    -3.896000000    -2.091000000     9.493000000
O    -0.624000000    -3.566000000     6.513000000
H    -0.679000000    -2.821000000     5.915000000
H     0.314000000    -3.700000000     6.644000000
O    -3.298000000    -1.261000000     5.879000000
H    -3.802000000    -0.496000000     5.600000000
H    -2.591000000    -1.328000000     5.237000000
O    -5.996000000    -0.082000000     8.115000000
H    -5.931000000    -0.066000000     7.160000000
H    -5.773000000    -0.981000000     8.355000000
