215
-1450.98900
C     2.850000000    -3.044000000     2.073000000
H     3.349000000    -2.083000000     2.168000000
C     2.472000000    -3.541000000     0.819000000
C     1.785000000    -4.781000000     0.718000000
H     1.498000000    -5.126000000    -0.272000000
C     2.822000000    -2.790000000    -0.453000000
O     4.176000000    -2.194000000    -0.393000000
H     1.992000000    -2.068000000    -0.429000000
O     2.770000000    -3.778000000    -1.578000000
C     2.270000000    -3.206000000    -2.692000000
C     0.979000000    -3.698000000    -2.945000000
H     0.631000000    -4.531000000    -2.340000000
C     0.169000000    -3.042000000    -3.877000000
O    -1.127000000    -3.309000000    -3.947000000
C     0.685000000    -1.989000000    -4.635000000
C    -0.137000000    -1.202000000    -5.643000000
H     0.517000000    -0.800000000    -6.419000000
C    -0.910000000     0.011000000    -4.966000000
C    -0.348000000     1.319000000    -5.081000000
H     0.599000000     1.431000000    -5.602000000
H    -0.918000000    -1.838000000    -6.064000000
C     1.980000000    -1.490000000    -4.311000000
H     2.264000000    -0.633000000    -4.916000000
C     2.783000000    -2.076000000    -3.365000000
C     4.217000000    -1.573000000    -3.217000000
H     4.625000000    -1.183000000    -4.152000000
H     4.784000000    -2.440000000    -2.869000000
C     4.223000000    -0.543000000    -2.213000000
C     4.255000000     0.806000000    -2.571000000
H     4.210000000     1.003000000    -3.639000000
C     4.217000000    -0.869000000    -0.891000000
C     4.238000000     0.099000000     0.091000000
H     4.215000000    -0.208000000     1.133000000
C     4.152000000     1.393000000    -0.245000000
O     4.080000000     2.281000000     0.788000000
C     2.809000000     2.922000000     0.971000000
C     2.385000000     2.992000000     2.445000000
C     1.340000000     3.821000000     2.846000000
H     0.893000000     4.468000000     2.095000000
C     2.935000000     2.109000000     3.356000000
H     3.738000000     1.450000000     3.034000000
O     2.817000000     4.225000000     0.407000000
H     2.035000000     2.309000000     0.486000000
C     4.283000000     1.778000000    -1.581000000
C     4.164000000     3.257000000    -1.945000000
H     4.686000000     3.420000000    -2.890000000
H     4.622000000     3.832000000    -1.137000000
C     2.756000000     3.758000000    -1.955000000
C     1.937000000     3.629000000    -3.117000000
H     2.347000000     3.375000000    -4.091000000
C     2.113000000     4.241000000    -0.837000000
C     0.760000000     4.509000000    -0.840000000
H     0.392000000     4.784000000     0.145000000
C    -0.002000000     4.366000000    -1.938000000
O    -1.292000000     4.508000000    -1.591000000
C    -2.167000000     3.346000000    -1.425000000
C    -3.318000000     3.624000000    -0.434000000
C    -3.356000000     4.783000000     0.394000000
H    -2.498000000     5.451000000     0.382000000
C    -4.361000000     2.757000000    -0.364000000
H    -4.395000000     1.870000000    -0.991000000
O    -2.717000000     3.011000000    -2.738000000
H    -1.512000000     2.501000000    -1.167000000
C     0.552000000     3.916000000    -3.118000000
C    -0.319000000     3.677000000    -4.364000000
H     0.390000000     3.798000000    -5.185000000
H    -1.035000000     4.496000000    -4.456000000
C    -1.024000000     2.322000000    -4.357000000
C    -2.068000000     2.071000000    -3.497000000
C    -2.598000000     0.806000000    -3.483000000
H    -3.533000000     0.631000000    -2.956000000
C    -1.983000000    -0.214000000    -4.129000000
O    -2.532000000    -1.451000000    -4.031000000
C    -1.882000000    -2.405000000    -3.148000000
H    -1.249000000    -1.888000000    -2.412000000
C    -2.820000000    -3.091000000    -2.233000000
C    -2.575000000    -4.424000000    -1.824000000
H    -1.676000000    -4.893000000    -2.217000000
C    -3.914000000    -2.425000000    -1.660000000
H    -4.144000000    -1.367000000    -1.761000000
C    -4.804000000    -3.141000000    -0.812000000
O    -5.869000000    -2.545000000    -0.232000000
C    -4.596000000    -4.534000000    -0.607000000
H    -5.292000000    -5.102000000     0.005000000
C    -3.444000000    -5.179000000    -1.046000000
O    -3.196000000    -6.422000000    -0.723000000
C    -1.900000000    -6.846000000    -0.716000000
C    -1.247000000    -6.594000000     0.535000000
H    -1.796000000    -6.122000000     1.346000000
C    -1.367000000    -7.630000000    -1.735000000
H    -1.872000000    -7.969000000    -2.636000000
C    -0.069000000    -8.067000000    -1.560000000
H     0.516000000    -8.581000000    -2.319000000
C     0.644000000    -7.841000000    -0.390000000
H     1.714000000    -8.009000000    -0.304000000
C     0.035000000    -7.072000000     0.646000000
O     0.828000000    -6.719000000     1.701000000
C     1.496000000    -5.484000000     1.868000000
C     1.854000000    -4.966000000     3.142000000
H     1.673000000    -5.517000000     4.062000000
C     2.550000000    -3.811000000     3.231000000
O     2.925000000    -3.425000000     4.500000000
C     3.731000000    -2.332000000     4.706000000
C     3.034000000    -1.152000000     4.988000000
H     1.967000000    -1.010000000     4.840000000
C     5.123000000    -2.412000000     4.853000000
H     5.633000000    -3.362000000     4.715000000
C     5.841000000    -1.327000000     5.274000000
H     6.895000000    -1.225000000     5.521000000
C     5.157000000    -0.096000000     5.448000000
H     5.663000000     0.754000000     5.899000000
C     3.773000000    -0.053000000     5.254000000
O     3.089000000     1.151000000     5.566000000
C     2.460000000     1.988000000     4.643000000
C     1.388000000     2.829000000     5.042000000
H     1.021000000     2.944000000     6.059000000
C     0.836000000     3.704000000     4.137000000
O    -0.179000000     4.476000000     4.522000000
C    -0.880000000     5.470000000     3.888000000
C    -2.172000000     5.137000000     3.406000000
H    -2.489000000     4.099000000     3.336000000
C    -0.536000000     6.781000000     4.121000000
H     0.389000000     6.976000000     4.658000000
C    -1.287000000     7.855000000     3.536000000
H    -0.906000000     8.872000000     3.492000000
C    -2.489000000     7.457000000     2.857000000
H    -3.184000000     8.186000000     2.448000000
C    -2.975000000     6.158000000     2.885000000
O    -4.226000000     5.812000000     2.357000000
C    -4.297000000     4.880000000     1.424000000
C    -5.412000000     4.043000000     1.437000000
H    -6.140000000     4.190000000     2.231000000
C    -5.431000000     2.995000000     0.559000000
O    -6.371000000     2.024000000     0.692000000
C    -5.920000000     0.790000000     0.989000000
C    -5.464000000     0.537000000     2.357000000
H    -5.385000000     1.389000000     3.028000000
C    -5.023000000    -0.692000000     2.673000000
H    -4.745000000    -0.923000000     3.698000000
C    -5.237000000    -1.730000000     1.825000000
H    -5.077000000    -2.721000000     2.242000000
C    -5.658000000    -1.494000000     0.499000000
C    -6.066000000    -0.252000000     0.080000000
H    -6.517000000    -0.053000000    -0.889000000
C    -1.652000000     0.098000000     2.717000000
H    -2.039000000     0.848000000     3.402000000
C    -1.429000000     0.354000000     1.349000000
H    -1.656000000     1.328000000     0.921000000
C    -0.974000000    -0.635000000     0.492000000
H    -0.746000000    -0.386000000    -0.531000000
C    -0.676000000    -1.906000000     0.950000000
H    -0.418000000    -2.659000000     0.210000000
C    -0.836000000    -2.168000000     2.309000000
H    -0.673000000    -3.184000000     2.661000000
C    -1.320000000    -1.180000000     3.172000000
C    -1.549000000    -1.504000000     4.664000000
O    -1.312000000    -2.622000000     5.119000000
O    -1.920000000    -0.642000000     5.381000000
O    -3.984000000     1.702000000     5.094000000
H    -4.208000000     1.694000000     6.025000000
H    -3.208000000     1.144000000     5.030000000
O     3.536000000    -5.345000000     6.634000000
H     3.956000000    -4.705000000     7.209000000
H     2.722000000    -4.922000000     6.359000000
O    -3.077000000    -4.823000000     3.139000000
H    -3.960000000    -4.554000000     3.392000000
H    -2.567000000    -4.012000000     3.152000000
O    -6.755000000    -3.315000000     6.344000000
H    -6.818000000    -2.364000000     6.435000000
H    -5.986000000    -3.555000000     6.861000000
O    -3.726000000     0.201000000     7.264000000
H    -3.179000000    -0.318000000     6.675000000
H    -3.220000000     0.254000000     8.075000000
O    -0.509000000    -6.980000000     4.716000000
H    -0.567000000    -7.730000000     4.125000000
H    -0.096000000    -7.328000000     5.506000000
O    -0.136000000     0.543000000     7.198000000
H    -0.817000000     0.978000000     7.711000000
H    -0.559000000     0.336000000     6.365000000
O     1.877000000     1.508000000     8.789000000
H     1.690000000     1.005000000     7.996000000
H     1.846000000     0.863000000     9.495000000
O    -4.164000000    -7.489000000     3.017000000
H    -4.825000000    -7.412000000     2.328000000
H    -3.819000000    -6.602000000     3.117000000
O    -1.856000000     2.419000000     8.551000000
H    -2.080000000     1.698000000     9.139000000
H    -2.679000000     2.634000000     8.112000000
O    -4.651000000    -3.672000000     8.022000000
H    -3.995000000    -3.925000000     7.372000000
H    -4.142000000    -3.324000000     8.753000000
O    -6.415000000     0.511000000     7.967000000
H    -5.609000000     0.423000000     7.459000000
H    -6.140000000     0.388000000     8.876000000
O    -2.840000000     0.314000000     9.934000000
H    -3.716000000     0.113000000    10.263000000
H    -2.315000000    -0.453000000    10.164000000
O    -2.350000000    -5.207000000     6.013000000
H    -2.339000000    -5.804000000     5.265000000
H    -2.059000000    -4.369000000     5.656000000
O    -5.811000000    -4.258000000     4.161000000
H    -6.195000000    -3.871000000     4.948000000
H    -6.492000000    -4.841000000     3.824000000
O     0.468000000    -4.187000000     6.140000000
H     0.179000000    -5.032000000     5.797000000
H    -0.040000000    -3.542000000     5.648000000
O    -1.094000000    -1.633000000    10.495000000
H    -1.214000000    -2.326000000     9.846000000
H    -0.918000000    -2.098000000    11.313000000
O     1.521000000    -1.918000000     7.942000000
H     1.565000000    -2.760000000     7.489000000
H     0.834000000    -1.435000000     7.485000000
O    -1.831000000    -2.896000000     7.941000000
H    -1.834000000    -2.508000000     7.066000000
H    -1.312000000    -3.695000000     7.847000000
