215
-1432.76415
C     2.512000000    -3.359000000     1.976000000
H     3.016000000    -2.406000000     2.115000000
C     2.295000000    -3.894000000     0.725000000
C     1.343000000    -4.872000000     0.582000000
H     1.035000000    -5.084000000    -0.439000000
C     2.734000000    -3.029000000    -0.416000000
O     4.035000000    -2.386000000    -0.272000000
H     1.966000000    -2.248000000    -0.515000000
O     2.722000000    -3.740000000    -1.631000000
C     2.104000000    -3.160000000    -2.701000000
C     0.822000000    -3.566000000    -3.058000000
H     0.169000000    -4.250000000    -2.522000000
C     0.171000000    -2.917000000    -4.127000000
O    -1.137000000    -3.146000000    -4.327000000
C     0.744000000    -1.804000000    -4.718000000
C    -0.053000000    -0.965000000    -5.727000000
H     0.641000000    -0.531000000    -6.450000000
C    -0.816000000     0.118000000    -4.972000000
C    -0.231000000     1.335000000    -4.892000000
H     0.731000000     1.512000000    -5.367000000
H    -0.768000000    -1.663000000    -6.169000000
C     2.028000000    -1.520000000    -4.453000000
H     2.580000000    -0.702000000    -4.908000000
C     2.760000000    -2.136000000    -3.425000000
C     4.187000000    -1.725000000    -3.085000000
H     4.617000000    -1.245000000    -3.966000000
H     4.819000000    -2.608000000    -2.966000000
C     4.345000000    -0.705000000    -1.959000000
C     4.422000000     0.600000000    -2.295000000
H     4.382000000     0.861000000    -3.349000000
C     4.285000000    -1.091000000    -0.589000000
C     4.435000000    -0.104000000     0.383000000
H     4.368000000    -0.339000000     1.442000000
C     4.413000000     1.290000000     0.063000000
O     4.311000000     2.339000000     1.029000000
C     2.985000000     2.811000000     1.176000000
C     2.546000000     2.780000000     2.643000000
C     1.611000000     3.724000000     3.154000000
H     1.203000000     4.478000000     2.486000000
C     3.018000000     1.757000000     3.506000000
H     3.709000000     1.010000000     3.123000000
O     2.826000000     4.156000000     0.618000000
H     2.354000000     2.181000000     0.532000000
C     4.405000000     1.625000000    -1.307000000
C     4.334000000     3.057000000    -1.795000000
H     4.676000000     3.146000000    -2.828000000
H     5.025000000     3.642000000    -1.183000000
C     2.911000000     3.670000000    -1.767000000
C     2.193000000     3.519000000    -2.930000000
H     2.712000000     3.199000000    -3.830000000
C     2.268000000     4.225000000    -0.638000000
C     0.903000000     4.614000000    -0.709000000
H     0.434000000     5.041000000     0.173000000
C     0.233000000     4.545000000    -1.917000000
O    -1.092000000     4.711000000    -1.889000000
C    -1.919000000     3.587000000    -1.640000000
C    -2.966000000     3.850000000    -0.516000000
C    -2.755000000     4.827000000     0.451000000
H    -1.804000000     5.353000000     0.443000000
C    -4.136000000     3.116000000    -0.400000000
H    -4.164000000     2.216000000    -1.009000000
O    -2.625000000     3.197000000    -2.825000000
H    -1.282000000     2.754000000    -1.307000000
C     0.900000000     3.972000000    -3.038000000
C     0.015000000     3.757000000    -4.249000000
H     0.534000000     3.801000000    -5.209000000
H    -0.707000000     4.572000000    -4.171000000
C    -0.757000000     2.412000000    -4.185000000
C    -1.966000000     2.200000000    -3.533000000
C    -2.575000000     0.977000000    -3.587000000
H    -3.563000000     0.775000000    -3.182000000
C    -2.026000000    -0.069000000    -4.298000000
O    -2.656000000    -1.297000000    -4.240000000
C    -2.045000000    -2.339000000    -3.463000000
H    -1.391000000    -1.837000000    -2.735000000
C    -3.157000000    -3.056000000    -2.622000000
C    -3.187000000    -4.442000000    -2.607000000
H    -2.425000000    -5.041000000    -3.100000000
C    -4.027000000    -2.261000000    -1.851000000
H    -4.085000000    -1.178000000    -1.932000000
C    -4.869000000    -2.930000000    -1.006000000
O    -5.818000000    -2.211000000    -0.319000000
C    -4.913000000    -4.370000000    -0.942000000
H    -5.509000000    -4.917000000    -0.216000000
C    -4.052000000    -5.061000000    -1.805000000
O    -3.940000000    -6.338000000    -1.423000000
C    -2.749000000    -6.842000000    -1.008000000
C    -1.988000000    -6.261000000     0.002000000
H    -2.459000000    -5.438000000     0.533000000
C    -2.297000000    -8.002000000    -1.576000000
H    -2.802000000    -8.338000000    -2.478000000
C    -1.022000000    -8.534000000    -1.302000000
H    -0.674000000    -9.412000000    -1.839000000
C    -0.287000000    -7.923000000    -0.323000000
H     0.741000000    -8.208000000    -0.113000000
C    -0.716000000    -6.795000000     0.376000000
O    -0.107000000    -6.509000000     1.593000000
C     0.798000000    -5.468000000     1.729000000
C     1.175000000    -5.094000000     2.981000000
H     0.752000000    -5.564000000     3.865000000
C     2.025000000    -4.046000000     3.149000000
O     2.318000000    -3.707000000     4.452000000
C     3.234000000    -2.743000000     4.661000000
C     2.754000000    -1.495000000     5.109000000
H     1.677000000    -1.444000000     5.249000000
C     4.665000000    -2.930000000     4.608000000
H     5.077000000    -3.897000000     4.333000000
C     5.549000000    -1.834000000     4.763000000
H     6.622000000    -1.929000000     4.620000000
C     4.979000000    -0.647000000     5.178000000
H     5.554000000     0.246000000     5.408000000
C     3.625000000    -0.455000000     5.316000000
O     3.164000000     0.814000000     5.659000000
C     2.604000000     1.726000000     4.769000000
C     1.701000000     2.668000000     5.275000000
H     1.477000000     2.569000000     6.334000000
C     1.184000000     3.683000000     4.404000000
O     0.210000000     4.516000000     4.924000000
C    -0.357000000     5.558000000     4.261000000
C    -1.537000000     5.362000000     3.537000000
H    -1.956000000     4.359000000     3.557000000
C     0.085000000     6.881000000     4.383000000
H     0.934000000     6.968000000     5.057000000
C    -0.627000000     7.967000000     3.881000000
H    -0.120000000     8.913000000     4.057000000
C    -1.757000000     7.724000000     3.114000000
H    -2.250000000     8.603000000     2.706000000
C    -2.253000000     6.400000000     2.906000000
O    -3.492000000     6.193000000     2.332000000
C    -3.690000000     5.121000000     1.461000000
C    -4.875000000     4.365000000     1.589000000
H    -5.608000000     4.671000000     2.332000000
C    -5.047000000     3.332000000     0.626000000
O    -6.079000000     2.425000000     0.839000000
C    -5.680000000     1.140000000     1.167000000
C    -5.243000000     0.845000000     2.458000000
H    -5.099000000     1.670000000     3.152000000
C    -5.045000000    -0.499000000     2.856000000
H    -4.781000000    -0.685000000     3.894000000
C    -5.042000000    -1.523000000     1.837000000
H    -4.912000000    -2.578000000     2.064000000
C    -5.461000000    -1.186000000     0.551000000
C    -5.803000000     0.115000000     0.232000000
H    -6.398000000     0.331000000    -0.652000000
C    -1.561000000     0.859000000     2.983000000
H    -2.002000000     1.550000000     3.697000000
C    -1.209000000     1.262000000     1.692000000
H    -1.459000000     2.283000000     1.415000000
C    -0.723000000     0.318000000     0.841000000
H    -0.293000000     0.657000000    -0.096000000
C    -0.358000000    -0.948000000     1.254000000
H     0.158000000    -1.622000000     0.574000000
C    -0.673000000    -1.352000000     2.527000000
H    -0.396000000    -2.344000000     2.877000000
C    -1.285000000    -0.443000000     3.443000000
C    -1.503000000    -0.911000000     4.848000000
O    -1.430000000    -2.089000000     5.081000000
O    -1.755000000    -0.141000000     5.738000000
O    -3.363000000     2.983000000     5.147000000
H    -2.949000000     3.588000000     5.762000000
H    -2.862000000     2.172000000     5.234000000
O     2.636000000    -6.137000000     6.379000000
H     3.557000000    -5.883000000     6.421000000
H     2.179000000    -5.340000000     6.109000000
O    -4.438000000    -5.606000000     2.877000000
H    -4.314000000    -4.781000000     3.346000000
H    -4.932000000    -6.155000000     3.486000000
O    -4.992000000    -0.722000000     6.851000000
H    -5.194000000    -0.093000000     7.544000000
H    -4.256000000    -1.228000000     7.194000000
O    -2.564000000     1.571000000     7.605000000
H    -2.258000000     0.982000000     6.915000000
H    -2.724000000     0.999000000     8.355000000
O    -0.619000000     0.968000000    10.609000000
H    -0.082000000     0.538000000    11.275000000
H    -1.085000000     0.251000000    10.179000000
O    -7.948000000    -1.120000000     3.621000000
H    -7.163000000    -1.531000000     3.984000000
H    -8.294000000    -0.591000000     4.339000000
O    -0.154000000    -0.582000000     7.754000000
H    -0.238000000     0.316000000     8.075000000
H    -0.628000000    -0.584000000     6.922000000
O    -0.466000000     2.987000000     8.599000000
H    -0.967000000     2.695000000     7.837000000
H    -0.435000000     2.221000000     9.172000000
O    -4.372000000    -4.784000000     8.477000000
H    -4.333000000    -4.024000000     7.896000000
H    -3.621000000    -4.678000000     9.061000000
O     1.996000000    -2.400000000     7.777000000
H     1.547000000    -3.170000000     7.429000000
H     1.292000000    -1.789000000     7.991000000
O    -4.336000000     3.847000000     8.429000000
H    -4.505000000     3.042000000     7.940000000
H    -3.553000000     4.216000000     8.021000000
O    -3.620000000    -3.531000000     4.654000000
H    -3.220000000    -4.084000000     5.325000000
H    -2.982000000    -2.833000000     4.507000000
O    -2.198000000    -5.868000000     6.308000000
H    -2.252000000    -6.541000000     6.987000000
H    -2.677000000    -6.237000000     5.566000000
O    -6.146000000    -2.575000000     5.335000000
H    -5.737000000    -1.848000000     5.806000000
H    -5.415000000    -3.136000000     5.078000000
O    -0.061000000    -3.918000000     6.527000000
H    -0.699000000    -4.603000000     6.727000000
H    -0.553000000    -3.274000000     6.018000000
O    -3.118000000    -0.117000000     9.534000000
H    -3.068000000    -0.663000000    10.319000000
H    -4.017000000     0.211000000     9.528000000
O     0.207000000    -4.350000000     9.341000000
H     0.132000000    -4.304000000     8.388000000
H    -0.669000000    -4.135000000     9.661000000
O    -2.847000000    -2.604000000     7.265000000
H    -2.277000000    -2.362000000     7.995000000
H    -2.355000000    -2.352000000     6.483000000
