215
-1471.83902
C     2.892000000    -2.017000000     2.358000000
H     3.253000000    -1.000000000     2.487000000
C     2.842000000    -2.542000000     1.030000000
C     2.272000000    -3.809000000     0.858000000
H     2.267000000    -4.213000000    -0.151000000
C     3.274000000    -1.731000000    -0.201000000
O     4.451000000    -0.904000000     0.141000000
H     2.398000000    -1.120000000    -0.463000000
O     3.644000000    -2.652000000    -1.315000000
C     3.156000000    -2.394000000    -2.585000000
C     2.036000000    -3.082000000    -2.941000000
H     1.846000000    -3.938000000    -2.299000000
C     1.291000000    -2.662000000    -4.010000000
O     0.140000000    -3.355000000    -4.272000000
C     1.655000000    -1.518000000    -4.717000000
C     0.627000000    -1.035000000    -5.823000000
H     1.184000000    -0.613000000    -6.662000000
C    -0.473000000    -0.187000000    -5.292000000
C    -0.237000000     1.166000000    -5.180000000
H     0.644000000     1.514000000    -5.712000000
H     0.205000000    -1.921000000    -6.302000000
C     2.781000000    -0.849000000    -4.327000000
H     2.998000000     0.125000000    -4.758000000
C     3.510000000    -1.247000000    -3.213000000
C     4.694000000    -0.441000000    -2.780000000
H     5.230000000    -0.041000000    -3.643000000
H     5.448000000    -1.115000000    -2.369000000
C     4.310000000     0.640000000    -1.720000000
C     4.079000000     1.985000000    -2.128000000
H     4.206000000     2.242000000    -3.176000000
C     4.306000000     0.361000000    -0.337000000
C     4.107000000     1.473000000     0.576000000
H     4.184000000     1.283000000     1.644000000
C     3.724000000     2.725000000     0.130000000
O     3.339000000     3.637000000     1.056000000
C     1.920000000     3.881000000     1.226000000
C     1.409000000     3.827000000     2.725000000
C     0.303000000     4.616000000     3.097000000
H    -0.189000000     5.219000000     2.338000000
C     2.017000000     2.926000000     3.595000000
H     2.918000000     2.394000000     3.300000000
O     1.585000000     5.003000000     0.450000000
H     1.294000000     3.092000000     0.783000000
C     3.708000000     3.018000000    -1.225000000
C     3.269000000     4.320000000    -1.731000000
H     3.649000000     4.597000000    -2.716000000
H     3.504000000     5.145000000    -1.055000000
C     1.778000000     4.302000000    -1.850000000
C     1.108000000     3.958000000    -2.961000000
H     1.816000000     3.594000000    -3.701000000
C     1.027000000     4.724000000    -0.758000000
C    -0.371000000     4.678000000    -0.734000000
H    -0.903000000     4.807000000     0.206000000
C    -1.012000000     4.243000000    -1.871000000
O    -2.351000000     3.976000000    -1.736000000
C    -2.609000000     2.582000000    -1.548000000
C    -3.703000000     2.381000000    -0.481000000
C    -3.840000000     3.248000000     0.584000000
H    -3.139000000     4.068000000     0.718000000
C    -4.420000000     1.186000000    -0.513000000
H    -4.164000000     0.482000000    -1.300000000
O    -3.082000000     2.033000000    -2.880000000
H    -1.649000000     2.125000000    -1.266000000
C    -0.281000000     3.905000000    -3.028000000
C    -0.894000000     3.517000000    -4.291000000
H    -0.159000000     3.969000000    -4.961000000
H    -1.917000000     3.890000000    -4.378000000
C    -1.127000000     1.967000000    -4.443000000
C    -2.208000000     1.355000000    -3.771000000
C    -2.489000000     0.001000000    -3.930000000
H    -3.293000000    -0.377000000    -3.304000000
C    -1.647000000    -0.792000000    -4.678000000
O    -1.780000000    -2.224000000    -4.593000000
C    -1.018000000    -2.916000000    -3.580000000
H    -0.641000000    -2.202000000    -2.833000000
C    -1.702000000    -4.133000000    -3.027000000
C    -1.189000000    -5.403000000    -2.947000000
H    -0.251000000    -5.561000000    -3.473000000
C    -2.885000000    -3.809000000    -2.367000000
H    -3.225000000    -2.778000000    -2.309000000
C    -3.644000000    -4.763000000    -1.711000000
O    -4.802000000    -4.495000000    -0.914000000
C    -3.091000000    -6.048000000    -1.595000000
H    -3.624000000    -6.732000000    -0.939000000
C    -1.860000000    -6.363000000    -2.166000000
O    -1.112000000    -7.572000000    -1.896000000
C     0.002000000    -7.489000000    -1.192000000
C    -0.019000000    -6.774000000     0.050000000
H    -0.964000000    -6.382000000     0.418000000
C     1.232000000    -7.884000000    -1.758000000
H     1.233000000    -8.385000000    -2.722000000
C     2.449000000    -7.715000000    -1.055000000
H     3.398000000    -7.971000000    -1.519000000
C     2.405000000    -6.918000000     0.096000000
H     3.341000000    -6.727000000     0.615000000
C     1.229000000    -6.538000000     0.657000000
O     1.365000000    -5.859000000     1.850000000
C     1.796000000    -4.545000000     1.951000000
C     1.868000000    -4.031000000     3.252000000
H     1.499000000    -4.667000000     4.052000000
C     2.384000000    -2.733000000     3.410000000
O     2.282000000    -2.277000000     4.697000000
C     2.944000000    -1.162000000     5.225000000
C     2.296000000     0.009000000     5.350000000
H     1.248000000     0.068000000     5.067000000
C     4.317000000    -1.225000000     5.613000000
H     4.864000000    -2.164000000     5.637000000
C     4.869000000    -0.091000000     6.249000000
H     5.882000000    -0.163000000     6.635000000
C     4.187000000     1.095000000     6.214000000
H     4.676000000     1.980000000     6.612000000
C     2.893000000     1.143000000     5.809000000
O     2.164000000     2.270000000     5.985000000
C     1.549000000     2.946000000     4.944000000
C     0.477000000     3.752000000     5.297000000
H     0.154000000     3.716000000     6.334000000
C    -0.205000000     4.542000000     4.416000000
O    -1.240000000     5.313000000     4.822000000
C    -2.333000000     5.721000000     4.110000000
C    -3.160000000     4.661000000     3.679000000
H    -2.915000000     3.624000000     3.892000000
C    -2.552000000     7.126000000     3.847000000
H    -1.841000000     7.857000000     4.226000000
C    -3.713000000     7.443000000     3.104000000
H    -3.785000000     8.476000000     2.774000000
C    -4.575000000     6.362000000     2.714000000
H    -5.467000000     6.563000000     2.126000000
C    -4.290000000     4.992000000     2.898000000
O    -5.178000000     4.027000000     2.430000000
C    -4.906000000     3.074000000     1.490000000
C    -5.768000000     1.984000000     1.378000000
H    -6.492000000     1.757000000     2.156000000
C    -5.453000000     1.072000000     0.409000000
O    -6.184000000    -0.085000000     0.321000000
C    -5.640000000    -1.334000000     0.646000000
C    -5.114000000    -1.463000000     1.912000000
H    -5.391000000    -0.724000000     2.659000000
C    -4.442000000    -2.660000000     2.213000000
H    -4.073000000    -2.836000000     3.220000000
C    -4.238000000    -3.638000000     1.235000000
H    -3.731000000    -4.544000000     1.559000000
C    -4.852000000    -3.509000000     0.014000000
C    -5.568000000    -2.326000000    -0.282000000
H    -6.219000000    -2.415000000    -1.148000000
C    -0.246000000    -0.109000000     2.143000000
H    -0.009000000     0.525000000     2.993000000
C    -0.144000000     0.339000000     0.844000000
H     0.276000000     1.314000000     0.607000000
C    -0.360000000    -0.509000000    -0.252000000
H    -0.200000000    -0.145000000    -1.288000000
C    -0.853000000    -1.817000000    -0.015000000
H    -0.981000000    -2.429000000    -0.904000000
C    -1.174000000    -2.186000000     1.309000000
H    -1.574000000    -3.185000000     1.467000000
C    -0.799000000    -1.374000000     2.363000000
C    -0.943000000    -1.814000000     3.795000000
O    -1.299000000    -2.985000000     4.087000000
O    -1.082000000    -0.967000000     4.651000000
O    -6.255000000    -6.632000000     3.299000000
H    -6.924000000    -6.025000000     3.613000000
H    -5.451000000    -6.113000000     3.279000000
O     3.908000000    -2.738000000     8.344000000
H     3.855000000    -1.884000000     7.917000000
H     3.081000000    -2.821000000     8.818000000
O    -1.081000000     1.643000000     8.820000000
H    -0.292000000     1.993000000     9.233000000
H    -0.789000000     0.841000000     8.387000000
O    -4.322000000     0.216000000     7.772000000
H    -3.747000000     0.977000000     7.695000000
H    -4.713000000     0.122000000     6.904000000
O    -5.343000000     0.083000000     5.340000000
H    -6.139000000     0.485000000     4.991000000
H    -5.495000000    -0.859000000     5.260000000
O    -0.032000000    -7.313000000     4.956000000
H     0.605000000    -6.845000000     5.496000000
H    -0.163000000    -6.747000000     4.195000000
O    -1.253000000    -5.509000000     3.211000000
H    -1.254000000    -4.723000000     3.758000000
H    -0.463000000    -5.428000000     2.678000000
O    -2.086000000    -2.095000000     8.747000000
H    -2.439000000    -1.912000000     9.618000000
H    -1.514000000    -2.852000000     8.875000000
O    -0.468000000    -0.653000000     7.263000000
H    -1.085000000    -1.175000000     7.776000000
H    -0.836000000    -0.647000000     6.379000000
O    -3.680000000    -5.131000000     4.217000000
H    -3.037000000    -5.135000000     3.508000000
H    -3.464000000    -4.353000000     4.732000000
O    -3.115000000     2.650000000     6.945000000
H    -2.784000000     2.079000000     6.252000000
H    -2.329000000     3.035000000     7.334000000
O    -2.819000000     1.117000000     4.787000000
H    -3.696000000     0.920000000     4.456000000
H    -2.350000000     0.285000000     4.731000000
O    -4.430000000    -5.679000000     7.605000000
H    -4.153000000    -4.950000000     8.160000000
H    -3.656000000    -5.891000000     7.083000000
O    -5.766000000    -2.781000000     5.162000000
H    -4.936000000    -2.945000000     5.610000000
H    -6.372000000    -2.537000000     5.862000000
O    -3.291000000    -7.542000000     5.293000000
H    -3.536000000    -6.648000000     5.053000000
H    -2.342000000    -7.570000000     5.171000000
O     2.103000000    -0.363000000     8.535000000
H     2.273000000     0.578000000     8.503000000
H     1.567000000    -0.537000000     7.761000000
O     0.352000000    -3.757000000     6.079000000
H    -0.475000000    -3.564000000     5.636000000
H     1.000000000    -3.224000000     5.619000000
O    -3.150000000    -2.898000000     6.322000000
H    -2.976000000    -2.425000000     7.136000000
H    -2.550000000    -2.510000000     5.686000000
O    -0.170000000    -4.089000000     8.734000000
H     0.002000000    -3.867000000     7.819000000
H     0.448000000    -3.552000000     9.231000000
