215
-1474.55035
C     3.811000000    -2.131000000     2.054000000
H     4.081000000    -1.078000000     2.038000000
C     3.489000000    -2.784000000     0.843000000
C     2.963000000    -4.070000000     0.837000000
H     2.586000000    -4.491000000    -0.092000000
C     3.442000000    -2.019000000    -0.477000000
O     4.573000000    -1.012000000    -0.455000000
H     2.502000000    -1.457000000    -0.582000000
O     3.733000000    -2.849000000    -1.651000000
C     2.905000000    -2.621000000    -2.706000000
C     1.816000000    -3.452000000    -2.866000000
H     1.545000000    -4.262000000    -2.194000000
C     0.820000000    -3.108000000    -3.745000000
O    -0.341000000    -3.826000000    -3.730000000
C     0.967000000    -1.973000000    -4.593000000
C    -0.028000000    -1.529000000    -5.588000000
H     0.371000000    -1.031000000    -6.475000000
C    -1.080000000    -0.613000000    -4.924000000
C    -1.005000000     0.764000000    -5.115000000
H    -0.195000000     1.145000000    -5.732000000
H    -0.620000000    -2.364000000    -5.968000000
C     2.140000000    -1.218000000    -4.577000000
H     2.327000000    -0.336000000    -5.184000000
C     3.087000000    -1.521000000    -3.559000000
C     4.199000000    -0.522000000    -3.426000000
H     4.339000000    -0.119000000    -4.431000000
H     5.133000000    -1.068000000    -3.274000000
C     4.017000000     0.527000000    -2.290000000
C     3.638000000     1.854000000    -2.709000000
H     3.494000000     2.044000000    -3.770000000
C     4.288000000     0.296000000    -0.915000000
C     4.043000000     1.338000000    -0.016000000
H     4.118000000     1.203000000     1.060000000
C     3.627000000     2.619000000    -0.427000000
O     3.224000000     3.385000000     0.612000000
C     1.795000000     3.575000000     0.811000000
C     1.367000000     3.644000000     2.302000000
C     0.305000000     4.506000000     2.702000000
H    -0.143000000     5.218000000     2.014000000
C     2.070000000     2.913000000     3.270000000
H     2.911000000     2.272000000     3.017000000
O     1.443000000     4.760000000     0.141000000
H     1.281000000     2.694000000     0.399000000
C     3.446000000     2.878000000    -1.779000000
C     2.894000000     4.199000000    -2.241000000
H     3.284000000     4.381000000    -3.245000000
H     3.364000000     5.041000000    -1.729000000
C     1.399000000     4.181000000    -2.227000000
C     0.662000000     3.772000000    -3.362000000
H     1.199000000     3.524000000    -4.274000000
C     0.770000000     4.507000000    -1.057000000
C    -0.621000000     4.492000000    -0.950000000
H    -1.134000000     4.544000000     0.007000000
C    -1.400000000     4.104000000    -2.071000000
O    -2.732000000     3.936000000    -1.923000000
C    -3.166000000     2.591000000    -1.620000000
C    -4.254000000     2.671000000    -0.509000000
C    -4.431000000     3.826000000     0.315000000
H    -3.850000000     4.705000000     0.045000000
C    -4.808000000     1.450000000    -0.089000000
H    -4.673000000     0.616000000    -0.773000000
O    -3.702000000     1.959000000    -2.804000000
H    -2.351000000     2.034000000    -1.135000000
C    -0.750000000     3.744000000    -3.317000000
C    -1.509000000     3.174000000    -4.566000000
H    -1.020000000     3.440000000    -5.506000000
H    -2.463000000     3.703000000    -4.579000000
C    -1.824000000     1.706000000    -4.424000000
C    -2.840000000     1.170000000    -3.572000000
C    -3.011000000    -0.215000000    -3.487000000
H    -3.732000000    -0.642000000    -2.793000000
C    -2.082000000    -1.066000000    -4.058000000
O    -2.381000000    -2.406000000    -3.773000000
C    -1.433000000    -3.201000000    -2.979000000
H    -0.848000000    -2.468000000    -2.403000000
C    -2.059000000    -4.152000000    -2.046000000
C    -1.504000000    -5.434000000    -1.728000000
H    -0.584000000    -5.789000000    -2.186000000
C    -3.275000000    -3.776000000    -1.458000000
H    -3.695000000    -2.798000000    -1.676000000
C    -3.837000000    -4.665000000    -0.543000000
O    -4.920000000    -4.188000000     0.197000000
C    -3.242000000    -5.874000000    -0.160000000
H    -3.732000000    -6.519000000     0.565000000
C    -2.030000000    -6.247000000    -0.756000000
O    -1.436000000    -7.447000000    -0.412000000
C    -0.101000000    -7.497000000    -0.126000000
C     0.528000000    -6.579000000     0.781000000
H    -0.058000000    -5.782000000     1.232000000
C     0.612000000    -8.627000000    -0.543000000
H     0.080000000    -9.402000000    -1.089000000
C     1.984000000    -8.820000000    -0.246000000
H     2.343000000    -9.837000000    -0.384000000
C     2.599000000    -7.872000000     0.635000000
H     3.638000000    -7.928000000     0.950000000
C     1.904000000    -6.755000000     1.043000000
O     2.551000000    -6.079000000     2.053000000
C     2.925000000    -4.735000000     2.049000000
C     3.269000000    -4.115000000     3.252000000
H     3.329000000    -4.641000000     4.201000000
C     3.634000000    -2.802000000     3.253000000
O     3.708000000    -2.164000000     4.464000000
C     4.073000000    -0.801000000     4.651000000
C     3.158000000     0.104000000     5.088000000
H     2.118000000    -0.162000000     5.257000000
C     5.326000000    -0.397000000     4.260000000
H     5.964000000    -1.175000000     3.848000000
C     5.665000000     0.939000000     4.348000000
H     6.617000000     1.389000000     4.078000000
C     4.738000000     1.871000000     4.899000000
H     5.009000000     2.922000000     4.960000000
C     3.483000000     1.451000000     5.215000000
O     2.488000000     2.407000000     5.559000000
C     1.726000000     3.062000000     4.598000000
C     0.694000000     3.907000000     4.967000000
H     0.440000000     4.038000000     6.016000000
C    -0.080000000     4.637000000     4.032000000
O    -1.037000000     5.535000000     4.517000000
C    -2.051000000     6.001000000     3.703000000
C    -3.177000000     5.184000000     3.546000000
H    -3.214000000     4.178000000     3.958000000
C    -1.862000000     7.222000000     3.043000000
H    -1.053000000     7.885000000     3.339000000
C    -2.942000000     7.673000000     2.248000000
H    -2.887000000     8.689000000     1.864000000
C    -4.038000000     6.830000000     2.044000000
H    -4.784000000     7.056000000     1.286000000
C    -4.184000000     5.631000000     2.696000000
O    -5.199000000     4.812000000     2.388000000
C    -5.145000000     3.726000000     1.498000000
C    -5.722000000     2.532000000     1.883000000
H    -6.283000000     2.465000000     2.812000000
C    -5.601000000     1.400000000     1.056000000
O    -6.154000000     0.224000000     1.422000000
C    -5.347000000    -0.900000000     1.635000000
C    -4.485000000    -0.956000000     2.664000000
H    -4.490000000    -0.240000000     3.482000000
C    -3.537000000    -2.044000000     2.846000000
H    -2.708000000    -2.105000000     3.547000000
C    -3.706000000    -3.092000000     1.966000000
H    -3.031000000    -3.944000000     1.988000000
C    -4.725000000    -3.119000000     1.000000000
C    -5.495000000    -1.984000000     0.770000000
H    -6.266000000    -2.010000000     0.004000000
C    -0.518000000     0.536000000     1.846000000
H    -0.677000000     1.421000000     2.457000000
C    -0.610000000     0.610000000     0.458000000
H    -0.797000000     1.525000000    -0.098000000
C    -0.503000000    -0.470000000    -0.289000000
H    -0.583000000    -0.366000000    -1.361000000
C    -0.217000000    -1.687000000     0.294000000
H     0.110000000    -2.513000000    -0.332000000
C    -0.079000000    -1.782000000     1.708000000
H     0.410000000    -2.661000000     2.121000000
C    -0.321000000    -0.667000000     2.478000000
C    -0.277000000    -0.816000000     4.032000000
O    -0.349000000    -1.909000000     4.462000000
O    -0.219000000     0.110000000     4.775000000
O    -2.336000000    -2.687000000     9.873000000
H    -1.392000000    -2.685000000     9.711000000
H    -2.462000000    -2.036000000    10.563000000
O     1.031000000     2.230000000     9.414000000
H     1.684000000     1.641000000     9.791000000
H     0.668000000     1.744000000     8.674000000
O    -1.748000000     3.395000000     7.495000000
H    -1.323000000     2.574000000     7.244000000
H    -2.469000000     3.491000000     6.872000000
O    -4.514000000    -1.159000000     6.064000000
H    -5.242000000    -0.759000000     6.540000000
H    -4.934000000    -1.724000000     5.415000000
O     1.015000000    -6.077000000     6.003000000
H     1.627000000    -5.350000000     6.119000000
H     0.272000000    -5.857000000     6.565000000
O    -0.428000000    -4.709000000     4.074000000
H     0.059000000    -3.908000000     3.881000000
H     0.214000000    -5.286000000     4.488000000
O    -1.048000000    -7.682000000     3.778000000
H    -0.219000000    -7.933000000     4.184000000
H    -1.026000000    -6.725000000     3.758000000
O    -3.126000000    -0.569000000     8.242000000
H    -2.888000000    -1.353000000     8.737000000
H    -3.669000000    -0.894000000     7.524000000
O    -0.294000000     0.953000000     7.293000000
H    -0.905000000     0.374000000     7.748000000
H    -0.165000000     0.541000000     6.438000000
O     0.641000000    -5.298000000     8.873000000
H     0.402000000    -4.435000000     9.211000000
H     1.598000000    -5.287000000     8.843000000
O    -3.145000000    -4.929000000     4.591000000
H    -2.386000000    -5.166000000     4.058000000
H    -2.786000000    -4.378000000     5.287000000
O    -5.019000000     3.474000000     6.077000000
H    -4.643000000     2.665000000     5.730000000
H    -4.969000000     3.373000000     7.027000000
O    -6.342000000    -2.912000000     4.733000000
H    -6.688000000    -3.444000000     5.450000000
H    -6.473000000    -3.449000000     3.952000000
O    -2.908000000     1.459000000     5.520000000
H    -3.212000000     0.622000000     5.871000000
H    -2.055000000     1.261000000     5.134000000
O     2.361000000    -1.056000000     8.453000000
H     3.074000000    -0.706000000     7.919000000
H     1.714000000    -1.363000000     7.817000000
O     0.718000000    -2.509000000     6.838000000
H     0.428000000    -2.047000000     6.051000000
H    -0.093000000    -2.782000000     7.267000000
O    -2.078000000    -2.820000000     6.321000000
H    -2.669000000    -2.075000000     6.427000000
H    -1.495000000    -2.564000000     5.607000000
O     3.000000000    -4.277000000     6.843000000
H     3.822000000    -3.794000000     6.923000000
H     2.370000000    -3.627000000     6.531000000
O     0.516000000    -2.827000000     9.797000000
H     1.443000000    -2.635000000     9.659000000
H     0.387000000    -2.724000000    10.739000000
