215
-1441.89860
C     2.764000000    -2.109000000     2.076000000
H     2.882000000    -1.056000000     1.831000000
C     3.112000000    -3.007000000     1.080000000
C     2.781000000    -4.334000000     1.307000000
H     2.890000000    -5.171000000     0.621000000
C     3.473000000    -2.438000000    -0.268000000
O     4.609000000    -1.511000000    -0.352000000
H     2.653000000    -1.768000000    -0.565000000
O     3.652000000    -3.415000000    -1.250000000
C     2.853000000    -3.248000000    -2.364000000
C     1.613000000    -3.854000000    -2.345000000
H     1.425000000    -4.674000000    -1.657000000
C     0.674000000    -3.557000000    -3.330000000
O    -0.550000000    -4.189000000    -3.142000000
C     0.974000000    -2.628000000    -4.328000000
C    -0.035000000    -2.273000000    -5.384000000
H     0.370000000    -1.818000000    -6.290000000
C    -0.939000000    -1.161000000    -4.885000000
C    -0.564000000     0.200000000    -5.137000000
H     0.325000000     0.351000000    -5.745000000
H    -0.688000000    -3.088000000    -5.705000000
C     2.136000000    -1.890000000    -4.273000000
H     2.283000000    -1.120000000    -5.026000000
C     3.107000000    -2.245000000    -3.337000000
C     4.380000000    -1.437000000    -3.201000000
H     4.718000000    -1.099000000    -4.182000000
H     5.175000000    -2.067000000    -2.797000000
C     4.164000000    -0.219000000    -2.327000000
C     3.951000000     1.023000000    -2.871000000
H     3.952000000     1.297000000    -3.923000000
C     4.495000000    -0.302000000    -0.962000000
C     4.285000000     0.813000000    -0.118000000
H     4.333000000     0.757000000     0.967000000
C     4.060000000     2.039000000    -0.676000000
O     3.708000000     3.042000000     0.253000000
C     2.373000000     3.545000000     0.448000000
C     2.123000000     3.955000000     1.864000000
C     1.149000000     4.989000000     2.108000000
H     0.703000000     5.508000000     1.263000000
C     2.611000000     3.245000000     2.976000000
H     3.382000000     2.483000000     2.899000000
O     2.079000000     4.604000000    -0.441000000
H     1.717000000     2.747000000     0.069000000
C     3.834000000     2.153000000    -2.058000000
C     3.628000000     3.541000000    -2.655000000
H     4.131000000     3.647000000    -3.619000000
H     4.037000000     4.243000000    -1.925000000
C     2.187000000     3.748000000    -2.713000000
C     1.394000000     3.232000000    -3.769000000
H     1.929000000     2.732000000    -4.573000000
C     1.473000000     4.197000000    -1.606000000
C     0.097000000     4.253000000    -1.482000000
H    -0.496000000     4.705000000    -0.692000000
C    -0.625000000     3.711000000    -2.506000000
O    -1.913000000     3.650000000    -2.438000000
C    -2.573000000     2.424000000    -1.955000000
C    -3.666000000     2.701000000    -0.908000000
C    -3.685000000     3.948000000    -0.242000000
H    -3.008000000     4.681000000    -0.672000000
C    -4.538000000     1.793000000    -0.430000000
H    -4.607000000     0.851000000    -0.968000000
O    -3.144000000     1.890000000    -3.154000000
H    -1.894000000     1.638000000    -1.593000000
C    -0.002000000     3.201000000    -3.683000000
C    -0.872000000     2.696000000    -4.860000000
H    -0.295000000     2.646000000    -5.786000000
H    -1.662000000     3.429000000    -5.037000000
C    -1.355000000     1.252000000    -4.669000000
C    -2.484000000     0.956000000    -3.971000000
C    -2.790000000    -0.359000000    -3.615000000
H    -3.647000000    -0.616000000    -2.998000000
C    -2.039000000    -1.441000000    -4.079000000
O    -2.437000000    -2.693000000    -3.634000000
C    -1.633000000    -3.296000000    -2.637000000
H    -1.093000000    -2.506000000    -2.093000000
C    -2.432000000    -4.054000000    -1.496000000
C    -1.917000000    -5.181000000    -0.806000000
H    -0.882000000    -5.461000000    -0.988000000
C    -3.645000000    -3.514000000    -1.165000000
H    -4.008000000    -2.671000000    -1.748000000
C    -4.350000000    -4.097000000    -0.076000000
O    -5.569000000    -3.621000000     0.297000000
C    -3.901000000    -5.250000000     0.576000000
H    -4.492000000    -5.651000000     1.396000000
C    -2.685000000    -5.845000000     0.212000000
O    -2.160000000    -6.888000000     1.011000000
C    -0.804000000    -7.249000000     1.031000000
C     0.089000000    -6.392000000     1.700000000
H    -0.216000000    -5.368000000     1.896000000
C    -0.377000000    -8.495000000     0.709000000
H    -1.084000000    -9.229000000     0.333000000
C     0.966000000    -8.840000000     0.979000000
H     1.310000000    -9.773000000     0.539000000
C     1.833000000    -8.059000000     1.685000000
H     2.801000000    -8.489000000     1.929000000
C     1.427000000    -6.804000000     2.016000000
O     2.289000000    -6.073000000     2.826000000
C     2.473000000    -4.758000000     2.619000000
C     2.433000000    -3.886000000     3.660000000
H     2.075000000    -4.259000000     4.616000000
C     2.492000000    -2.571000000     3.368000000
O     2.309000000    -1.558000000     4.288000000
C     3.234000000    -0.553000000     4.571000000
C     2.625000000     0.647000000     4.881000000
H     1.540000000     0.611000000     4.843000000
C     4.591000000    -0.740000000     4.550000000
H     4.928000000    -1.756000000     4.359000000
C     5.416000000     0.361000000     4.928000000
H     6.495000000     0.231000000     4.923000000
C     4.802000000     1.609000000     5.225000000
H     5.470000000     2.448000000     5.399000000
C     3.412000000     1.741000000     5.288000000
O     2.832000000     2.979000000     5.426000000
C     2.183000000     3.557000000     4.298000000
C     1.252000000     4.599000000     4.489000000
H     1.105000000     5.085000000     5.450000000
C     0.674000000     5.176000000     3.393000000
O    -0.151000000     6.261000000     3.648000000
C    -1.127000000     6.749000000     2.761000000
C    -2.246000000     5.912000000     2.546000000
H    -2.268000000     4.959000000     3.069000000
C    -1.119000000     7.973000000     2.122000000
H    -0.230000000     8.598000000     2.146000000
C    -2.193000000     8.381000000     1.381000000
H    -2.188000000     9.437000000     1.122000000
C    -3.288000000     7.559000000     1.112000000
H    -4.066000000     7.873000000     0.420000000
C    -3.366000000     6.330000000     1.753000000
O    -4.469000000     5.510000000     1.512000000
C    -4.465000000     4.216000000     0.847000000
C    -5.449000000     3.279000000     1.161000000
H    -6.106000000     3.390000000     2.020000000
C    -5.419000000     2.041000000     0.585000000
O    -6.419000000     1.116000000     0.813000000
C    -6.081000000    -0.074000000     1.388000000
C    -5.792000000    -0.168000000     2.715000000
H    -5.849000000     0.736000000     3.317000000
C    -5.578000000    -1.438000000     3.303000000
H    -5.344000000    -1.536000000     4.360000000
C    -5.480000000    -2.562000000     2.508000000
H    -5.288000000    -3.529000000     2.964000000
C    -5.708000000    -2.487000000     1.100000000
C    -6.063000000    -1.244000000     0.585000000
H    -6.220000000    -1.166000000    -0.488000000
C    -0.809000000     0.723000000     1.460000000
H    -1.139000000     1.662000000     1.897000000
C    -0.458000000     0.725000000     0.114000000
H    -0.430000000     1.647000000    -0.460000000
C    -0.110000000    -0.378000000    -0.599000000
H     0.137000000    -0.442000000    -1.660000000
C    -0.156000000    -1.580000000     0.051000000
H     0.125000000    -2.443000000    -0.546000000
C    -0.471000000    -1.654000000     1.382000000
H    -0.466000000    -2.618000000     1.883000000
C    -0.904000000    -0.485000000     2.129000000
C    -1.243000000    -0.511000000     3.574000000
O    -1.232000000    -1.612000000     4.162000000
O    -1.486000000     0.499000000     4.154000000
O     0.882000000     2.370000000     8.427000000
H     1.557000000     1.693000000     8.490000000
H     0.413000000     2.166000000     7.618000000
O    -3.166000000     5.741000000     5.442000000
H    -2.523000000     5.081000000     5.184000000
H    -3.848000000     5.685000000     4.773000000
O    -4.966000000     1.994000000     5.818000000
H    -5.177000000     1.064000000     5.741000000
H    -4.766000000     2.119000000     6.745000000
O    -3.483000000    -4.945000000     4.778000000
H    -2.772000000    -5.475000000     5.136000000
H    -3.067000000    -4.410000000     4.102000000
O    -6.181000000    -1.137000000     7.150000000
H    -5.594000000    -1.822000000     6.829000000
H    -6.813000000    -1.013000000     6.441000000
O    -0.855000000    -4.260000000     4.224000000
H    -1.048000000    -3.335000000     4.073000000
H    -0.179000000    -4.257000000     4.903000000
O    -1.090000000    -7.252000000     4.360000000
H    -0.651000000    -6.669000000     3.740000000
H    -0.995000000    -6.815000000     5.207000000
O    -0.695000000    -0.898000000     8.424000000
H    -0.087000000    -0.733000000     9.145000000
H    -1.521000000    -1.120000000     8.853000000
O    -5.755000000    -4.060000000     6.028000000
H    -5.557000000    -4.558000000     6.821000000
H    -5.053000000    -4.289000000     5.419000000
O    -0.595000000     1.733000000     6.292000000
H    -0.630000000     1.133000000     5.546000000
H    -0.931000000     2.560000000     5.948000000
O    -3.674000000    -3.764000000     8.182000000
H    -3.327000000    -2.909000000     7.927000000
H    -3.371000000    -4.360000000     7.496000000
O    -6.613000000     3.764000000     4.340000000
H    -5.999000000     3.289000000     4.900000000
H    -6.514000000     4.680000000     4.598000000
O    -2.393000000     2.819000000     4.603000000
H    -3.281000000     2.495000000     4.756000000
H    -1.913000000     2.056000000     4.280000000
O     2.574000000     0.111000000     8.618000000
H     2.050000000    -0.273000000     9.321000000
H     2.447000000    -0.480000000     7.875000000
O     0.442000000    -2.683000000     6.521000000
H     0.204000000    -2.086000000     7.230000000
H     0.185000000    -2.222000000     5.723000000
O    -3.059000000    -1.555000000     6.199000000
H    -2.357000000    -1.744000000     6.821000000
H    -2.612000000    -1.433000000     5.362000000
O    -2.908000000     1.226000000     7.890000000
H    -2.952000000     2.167000000     8.056000000
H    -2.074000000     1.102000000     7.436000000
O    -3.208000000    -0.359000000    10.270000000
H    -3.018000000     0.124000000     9.466000000
H    -3.206000000     0.308000000    10.956000000
O     2.491000000    -4.027000000     7.843000000
H     3.278000000    -3.487000000     7.775000000
H     1.870000000    -3.623000000     7.236000000
