215
-1458.52490
C     3.742000000    -2.372000000     2.025000000
H     3.730000000    -1.292000000     1.900000000
C     3.647000000    -3.154000000     0.862000000
C     3.477000000    -4.510000000     0.933000000
H     3.224000000    -5.029000000     0.012000000
C     3.488000000    -2.422000000    -0.499000000
O     4.529000000    -1.430000000    -0.724000000
H     2.490000000    -1.978000000    -0.631000000
O     3.591000000    -3.411000000    -1.578000000
C     2.767000000    -3.208000000    -2.604000000
C     1.551000000    -3.921000000    -2.594000000
H     1.355000000    -4.565000000    -1.741000000
C     0.514000000    -3.641000000    -3.453000000
O    -0.672000000    -4.145000000    -3.014000000
C     0.671000000    -2.679000000    -4.447000000
C    -0.509000000    -2.226000000    -5.326000000
H    -0.117000000    -1.924000000    -6.300000000
C    -1.301000000    -1.103000000    -4.737000000
C    -0.949000000     0.218000000    -5.050000000
H    -0.125000000     0.397000000    -5.735000000
H    -1.151000000    -3.109000000    -5.359000000
C     1.919000000    -2.048000000    -4.592000000
H     2.039000000    -1.290000000    -5.362000000
C     2.964000000    -2.224000000    -3.609000000
C     4.193000000    -1.355000000    -3.637000000
H     4.346000000    -0.977000000    -4.650000000
H     5.047000000    -1.998000000    -3.415000000
C     4.064000000    -0.164000000    -2.721000000
C     3.793000000     1.108000000    -3.244000000
H     3.897000000     1.392000000    -4.288000000
C     4.321000000    -0.255000000    -1.347000000
C     4.219000000     0.856000000    -0.520000000
H     4.411000000     0.743000000     0.544000000
C     3.796000000     2.082000000    -1.024000000
O     3.525000000     3.067000000    -0.120000000
C     2.157000000     3.465000000     0.145000000
C     1.947000000     3.726000000     1.637000000
C     1.082000000     4.802000000     2.010000000
H     0.606000000     5.460000000     1.288000000
C     2.363000000     2.851000000     2.639000000
H     2.817000000     1.922000000     2.304000000
O     1.891000000     4.512000000    -0.789000000
H     1.485000000     2.607000000    -0.002000000
C     3.583000000     2.181000000    -2.405000000
C     3.201000000     3.519000000    -3.042000000
H     3.419000000     3.602000000    -4.109000000
H     3.709000000     4.329000000    -2.515000000
C     1.669000000     3.644000000    -2.973000000
C     0.809000000     3.201000000    -4.023000000
H     1.350000000     2.600000000    -4.750000000
C     1.099000000     4.214000000    -1.859000000
C    -0.293000000     4.390000000    -1.742000000
H    -0.692000000     4.707000000    -0.782000000
C    -1.112000000     3.928000000    -2.782000000
O    -2.471000000     3.893000000    -2.608000000
C    -2.950000000     2.668000000    -2.054000000
C    -3.821000000     2.928000000    -0.832000000
C    -3.794000000     4.150000000    -0.066000000
H    -3.113000000     4.923000000    -0.412000000
C    -4.682000000     1.983000000    -0.320000000
H    -4.598000000     0.953000000    -0.658000000
O    -3.627000000     1.830000000    -2.983000000
H    -2.096000000     2.105000000    -1.649000000
C    -0.579000000     3.335000000    -3.936000000
C    -1.434000000     2.718000000    -4.988000000
H    -0.969000000     2.908000000    -5.957000000
H    -2.414000000     3.194000000    -4.923000000
C    -1.754000000     1.267000000    -4.551000000
C    -2.823000000     0.964000000    -3.646000000
C    -2.971000000    -0.300000000    -3.187000000
H    -3.801000000    -0.538000000    -2.527000000
C    -2.290000000    -1.358000000    -3.782000000
O    -2.459000000    -2.668000000    -3.301000000
C    -1.542000000    -3.212000000    -2.349000000
H    -0.971000000    -2.368000000    -1.936000000
C    -2.288000000    -3.917000000    -1.235000000
C    -1.687000000    -4.895000000    -0.471000000
H    -0.731000000    -5.303000000    -0.791000000
C    -3.549000000    -3.424000000    -0.797000000
H    -4.019000000    -2.567000000    -1.272000000
C    -4.201000000    -3.969000000     0.335000000
O    -5.376000000    -3.405000000     0.691000000
C    -3.626000000    -4.976000000     1.015000000
H    -4.164000000    -5.445000000     1.834000000
C    -2.355000000    -5.386000000     0.614000000
O    -1.728000000    -6.258000000     1.576000000
C    -0.499000000    -6.900000000     1.436000000
C     0.605000000    -6.305000000     1.984000000
H     0.557000000    -5.291000000     2.371000000
C    -0.444000000    -8.054000000     0.659000000
H    -1.323000000    -8.522000000     0.222000000
C     0.795000000    -8.660000000     0.523000000
H     1.040000000    -9.510000000    -0.109000000
C     1.898000000    -8.183000000     1.171000000
H     2.873000000    -8.663000000     1.144000000
C     1.818000000    -7.011000000     1.938000000
O     3.002000000    -6.459000000     2.286000000
C     3.354000000    -5.148000000     2.190000000
C     3.609000000    -4.376000000     3.286000000
H     3.490000000    -4.910000000     4.225000000
C     3.673000000    -3.008000000     3.256000000
O     3.400000000    -2.288000000     4.403000000
C     3.851000000    -1.041000000     4.654000000
C     2.954000000     0.065000000     4.641000000
H     1.903000000    -0.009000000     4.375000000
C     5.138000000    -0.863000000     5.105000000
H     5.788000000    -1.734000000     5.139000000
C     5.529000000     0.385000000     5.624000000
H     6.543000000     0.516000000     5.995000000
C     4.678000000     1.488000000     5.644000000
H     5.015000000     2.466000000     5.978000000
C     3.351000000     1.343000000     5.102000000
O     2.626000000     2.469000000     5.081000000
C     2.142000000     3.182000000     3.978000000
C     1.272000000     4.242000000     4.244000000
H     1.093000000     4.305000000     5.315000000
C     0.742000000     5.078000000     3.339000000
O    -0.164000000     6.044000000     3.686000000
C    -1.164000000     6.528000000     2.902000000
C    -2.288000000     5.722000000     2.668000000
H    -2.281000000     4.659000000     2.896000000
C    -1.202000000     7.836000000     2.466000000
H    -0.362000000     8.496000000     2.665000000
C    -2.227000000     8.329000000     1.756000000
H    -2.173000000     9.382000000     1.490000000
C    -3.354000000     7.564000000     1.552000000
H    -4.199000000     7.992000000     1.019000000
C    -3.366000000     6.256000000     1.982000000
O    -4.502000000     5.571000000     1.667000000
C    -4.577000000     4.361000000     1.041000000
C    -5.525000000     3.407000000     1.394000000
H    -6.255000000     3.620000000     2.171000000
C    -5.649000000     2.256000000     0.691000000
O    -6.497000000     1.267000000     1.197000000
C    -5.860000000     0.098000000     1.593000000
C    -5.344000000     0.123000000     2.942000000
H    -5.419000000     1.056000000     3.496000000
C    -4.903000000    -1.070000000     3.507000000
H    -4.691000000    -1.033000000     4.573000000
C    -4.918000000    -2.285000000     2.815000000
H    -4.618000000    -3.201000000     3.318000000
C    -5.340000000    -2.246000000     1.444000000
C    -5.812000000    -1.101000000     0.834000000
H    -6.445000000    -1.222000000    -0.042000000
C    -1.610000000     1.558000000     2.588000000
H    -1.679000000     2.484000000     3.154000000
C    -1.469000000     1.638000000     1.212000000
H    -1.570000000     2.598000000     0.712000000
C    -1.274000000     0.481000000     0.449000000
H    -1.160000000     0.611000000    -0.681000000
C    -1.066000000    -0.789000000     1.088000000
H    -0.877000000    -1.656000000     0.461000000
C    -1.171000000    -0.858000000     2.479000000
H    -1.060000000    -1.853000000     2.902000000
C    -1.464000000     0.335000000     3.257000000
C    -1.594000000     0.262000000     4.776000000
O    -1.013000000    -0.527000000     5.511000000
O    -2.353000000     1.028000000     5.366000000
O     2.928000000     1.056000000     8.775000000
H     2.152000000     1.426000000     8.352000000
H     2.996000000     0.171000000     8.417000000
O    -1.266000000     3.283000000     6.135000000
H    -2.083000000     3.674000000     6.446000000
H    -1.517000000     2.408000000     5.839000000
O    -4.217000000     3.114000000     7.798000000
H    -3.483000000     3.030000000     8.406000000
H    -4.995000000     3.088000000     8.356000000
O    -2.270000000    -3.144000000     5.090000000
H    -1.419000000    -3.453000000     4.780000000
H    -2.131000000    -2.218000000     5.289000000
O    -6.072000000     0.027000000     8.561000000
H    -6.356000000    -0.077000000     7.653000000
H    -5.129000000     0.179000000     8.501000000
O     0.332000000    -3.807000000     4.673000000
H     0.791000000    -2.985000000     4.503000000
H     0.704000000    -4.123000000     5.497000000
O     0.669000000    -0.536000000    10.777000000
H     0.563000000    -0.113000000     9.925000000
H     0.938000000    -1.431000000    10.568000000
O    -1.184000000    -2.851000000     8.179000000
H    -1.839000000    -2.749000000     8.870000000
H    -1.072000000    -3.798000000     8.093000000
O    -4.722000000    -4.076000000     5.634000000
H    -4.657000000    -5.003000000     5.865000000
H    -3.814000000    -3.783000000     5.557000000
O     0.187000000     4.625000000     8.547000000
H     0.533000000     5.514000000     8.469000000
H    -0.052000000     4.382000000     7.652000000
O     0.396000000     1.624000000     7.634000000
H    -0.187000000     2.189000000     7.126000000
H     0.622000000     0.913000000     7.035000000
O    -6.232000000     4.462000000     4.608000000
H    -5.516000000     5.083000000     4.742000000
H    -5.803000000     3.608000000     4.564000000
O    -4.502000000     2.570000000     5.122000000
H    -4.499000000     2.693000000     6.071000000
H    -3.849000000     1.887000000     4.967000000
O    -2.154000000     3.626000000     9.777000000
H    -1.379000000     3.949000000     9.318000000
H    -2.225000000     4.186000000    10.550000000
O     0.808000000     2.826000000    10.608000000
H     0.498000000     3.203000000     9.785000000
H     1.745000000     2.687000000    10.469000000
O     3.478000000    -1.993000000     7.543000000
H     2.585000000    -2.055000000     7.205000000
H     3.959000000    -2.676000000     7.075000000
O     0.907000000    -2.024000000     6.827000000
H     0.304000000    -2.354000000     7.493000000
H     0.353000000    -1.514000000     6.235000000
O    -3.173000000    -0.304000000     7.527000000
H    -2.739000000    -1.157000000     7.493000000
H    -2.717000000     0.223000000     6.870000000
O    -2.792000000     0.683000000    10.020000000
H    -2.488000000     1.587000000     9.930000000
H    -2.898000000     0.376000000     9.120000000
