215
-1435.22263
C     4.782000000    -2.187000000     1.765000000
H     5.219000000    -1.193000000     1.717000000
C     4.091000000    -2.768000000     0.676000000
C     3.359000000    -3.922000000     0.876000000
H     2.882000000    -4.350000000    -0.002000000
C     3.966000000    -1.934000000    -0.567000000
O     5.036000000    -0.994000000    -0.660000000
H     3.056000000    -1.325000000    -0.457000000
O     3.907000000    -2.731000000    -1.784000000
C     3.020000000    -2.430000000    -2.750000000
C     1.879000000    -3.202000000    -2.891000000
H     1.680000000    -4.097000000    -2.307000000
C     0.930000000    -2.817000000    -3.868000000
O    -0.276000000    -3.532000000    -3.715000000
C     1.130000000    -1.683000000    -4.652000000
C     0.153000000    -1.176000000    -5.699000000
H     0.648000000    -0.493000000    -6.393000000
C    -0.925000000    -0.340000000    -4.993000000
C    -0.761000000     1.079000000    -5.003000000
H     0.123000000     1.483000000    -5.491000000
H    -0.249000000    -1.955000000    -6.350000000
C     2.389000000    -1.037000000    -4.614000000
H     2.599000000    -0.208000000    -5.285000000
C     3.289000000    -1.384000000    -3.585000000
C     4.508000000    -0.470000000    -3.402000000
H     4.828000000     0.015000000    -4.327000000
H     5.299000000    -1.174000000    -3.135000000
C     4.326000000     0.593000000    -2.339000000
C     3.753000000     1.834000000    -2.663000000
H     3.511000000     2.028000000    -3.705000000
C     4.657000000     0.281000000    -1.030000000
C     4.247000000     1.098000000    -0.015000000
H     4.301000000     0.770000000     1.019000000
C     3.670000000     2.340000000    -0.316000000
O     3.271000000     3.083000000     0.730000000
C     1.865000000     3.309000000     0.833000000
C     1.411000000     3.138000000     2.283000000
C     0.445000000     3.994000000     2.832000000
H    -0.040000000     4.664000000     2.127000000
C     1.813000000     2.073000000     3.051000000
H     2.503000000     1.339000000     2.642000000
O     1.460000000     4.580000000     0.245000000
H     1.492000000     2.498000000     0.191000000
C     3.507000000     2.761000000    -1.635000000
C     2.956000000     4.104000000    -2.012000000
H     3.200000000     4.396000000    -3.035000000
H     3.276000000     5.016000000    -1.504000000
C     1.448000000     4.147000000    -2.042000000
C     0.670000000     3.839000000    -3.184000000
H     1.254000000     3.434000000    -4.006000000
C     0.758000000     4.503000000    -0.895000000
C    -0.581000000     4.353000000    -0.867000000
H    -1.041000000     4.405000000     0.117000000
C    -1.391000000     4.094000000    -1.937000000
O    -2.743000000     3.924000000    -1.833000000
C    -3.248000000     2.640000000    -1.587000000
C    -4.304000000     2.617000000    -0.441000000
C    -4.416000000     3.720000000     0.423000000
H    -3.788000000     4.600000000     0.304000000
C    -5.103000000     1.534000000    -0.279000000
H    -5.037000000     0.617000000    -0.859000000
O    -3.694000000     2.064000000    -2.873000000
H    -2.492000000     1.964000000    -1.159000000
C    -0.723000000     3.830000000    -3.102000000
C    -1.457000000     3.442000000    -4.309000000
H    -0.826000000     3.787000000    -5.131000000
H    -2.321000000     4.108000000    -4.271000000
C    -1.657000000     1.893000000    -4.358000000
C    -2.821000000     1.309000000    -3.695000000
C    -2.955000000    -0.070000000    -3.692000000
H    -3.727000000    -0.536000000    -3.085000000
C    -1.981000000    -0.910000000    -4.240000000
O    -2.165000000    -2.244000000    -4.038000000
C    -1.343000000    -2.894000000    -3.007000000
H    -0.893000000    -2.111000000    -2.379000000
C    -2.248000000    -3.815000000    -2.201000000
C    -1.680000000    -4.936000000    -1.651000000
H    -0.637000000    -5.176000000    -1.841000000
C    -3.578000000    -3.560000000    -1.924000000
H    -4.062000000    -2.719000000    -2.414000000
C    -4.317000000    -4.436000000    -1.060000000
O    -5.433000000    -4.016000000    -0.489000000
C    -3.686000000    -5.531000000    -0.482000000
H    -4.235000000    -6.137000000     0.234000000
C    -2.399000000    -5.853000000    -0.812000000
O    -1.771000000    -6.947000000    -0.123000000
C    -0.372000000    -7.019000000     0.128000000
C     0.236000000    -6.202000000     1.122000000
H    -0.361000000    -5.492000000     1.688000000
C     0.442000000    -7.857000000    -0.574000000
H    -0.040000000    -8.338000000    -1.422000000
C     1.809000000    -8.015000000    -0.244000000
H     2.589000000    -8.540000000    -0.791000000
C     2.352000000    -7.223000000     0.758000000
H     3.379000000    -7.345000000     1.091000000
C     1.613000000    -6.239000000     1.420000000
O     2.254000000    -5.491000000     2.343000000
C     3.218000000    -4.512000000     2.101000000
C     3.881000000    -3.953000000     3.197000000
H     3.661000000    -4.415000000     4.156000000
C     4.629000000    -2.786000000     3.037000000
O     5.239000000    -2.196000000     4.146000000
C     4.851000000    -0.969000000     4.578000000
C     3.527000000    -0.519000000     4.606000000
H     2.711000000    -1.105000000     4.189000000
C     5.756000000    -0.131000000     5.239000000
H     6.791000000    -0.461000000     5.229000000
C     5.384000000     1.032000000     5.827000000
H     6.099000000     1.610000000     6.406000000
C     4.078000000     1.468000000     5.810000000
H     3.764000000     2.442000000     6.176000000
C     3.140000000     0.620000000     5.241000000
O     1.805000000     0.931000000     5.138000000
C     1.370000000     1.981000000     4.412000000
C     0.442000000     2.849000000     4.890000000
H     0.077000000     2.732000000     5.907000000
C    -0.049000000     3.840000000     4.077000000
O    -1.086000000     4.566000000     4.606000000
C    -2.010000000     5.277000000     3.893000000
C    -3.284000000     4.778000000     3.638000000
H    -3.491000000     3.798000000     4.063000000
C    -1.664000000     6.453000000     3.248000000
H    -0.675000000     6.824000000     3.506000000
C    -2.520000000     7.000000000     2.313000000
H    -2.194000000     7.808000000     1.663000000
C    -3.821000000     6.549000000     2.162000000
H    -4.400000000     6.915000000     1.318000000
C    -4.156000000     5.387000000     2.800000000
O    -5.361000000     4.723000000     2.454000000
C    -5.360000000     3.732000000     1.474000000
C    -6.159000000     2.604000000     1.634000000
H    -6.839000000     2.492000000     2.475000000
C    -5.967000000     1.517000000     0.804000000
O    -6.633000000     0.367000000     1.067000000
C    -6.009000000    -0.843000000     1.207000000
C    -5.049000000    -0.852000000     2.231000000
H    -5.008000000    -0.070000000     2.985000000
C    -4.203000000    -2.005000000     2.353000000
H    -3.535000000    -2.015000000     3.211000000
C    -4.475000000    -3.083000000     1.508000000
H    -3.817000000    -3.940000000     1.627000000
C    -5.322000000    -3.016000000     0.461000000
C    -6.084000000    -1.894000000     0.313000000
H    -6.776000000    -1.747000000    -0.513000000
C    -1.107000000     0.361000000     2.383000000
H    -1.588000000     0.910000000     3.189000000
C    -1.016000000     0.856000000     1.075000000
H    -1.426000000     1.809000000     0.749000000
C    -0.358000000     0.039000000     0.099000000
H    -0.361000000     0.431000000    -0.915000000
C     0.226000000    -1.141000000     0.481000000
H     0.771000000    -1.785000000    -0.203000000
C     0.201000000    -1.544000000     1.809000000
H     0.557000000    -2.550000000     2.013000000
C    -0.457000000    -0.757000000     2.799000000
C    -0.416000000    -1.087000000     4.277000000
O     0.434000000    -1.917000000     4.696000000
O    -1.235000000    -0.645000000     5.031000000
O    -2.465000000     1.555000000     8.455000000
H    -1.761000000     1.130000000     8.944000000
H    -2.203000000     1.473000000     7.538000000
O    -5.282000000     0.376000000     5.564000000
H    -5.190000000    -0.521000000     5.886000000
H    -6.215000000     0.466000000     5.371000000
O     2.179000000    -5.720000000     6.255000000
H     3.067000000    -6.006000000     6.041000000
H     2.265000000    -4.783000000     6.430000000
O    -0.686000000    -4.451000000     4.510000000
H    -0.352000000    -3.564000000     4.649000000
H     0.071000000    -5.017000000     4.659000000
O    -0.098000000    -7.864000000     5.551000000
H    -0.903000000    -7.482000000     5.901000000
H     0.588000000    -7.243000000     5.797000000
O    -5.000000000     0.332000000     8.946000000
H    -4.101000000     0.543000000     8.694000000
H    -4.984000000    -0.609000000     9.122000000
O    -2.115000000    -1.791000000     8.769000000
H    -1.627000000    -2.131000000     9.519000000
H    -2.997000000    -1.638000000     9.108000000
O    -5.119000000    -5.889000000     4.225000000
H    -4.307000000    -5.478000000     4.524000000
H    -5.071000000    -6.784000000     4.560000000
O     0.473000000    -1.383000000     7.371000000
H    -0.386000000    -1.384000000     7.794000000
H     0.280000000    -1.462000000     6.437000000
O    -3.087000000    -4.567000000     5.401000000
H    -2.192000000    -4.670000000     5.075000000
H    -3.170000000    -3.630000000     5.579000000
O    -3.786000000     4.203000000     6.869000000
H    -3.588000000     3.440000000     6.325000000
H    -3.895000000     3.846000000     7.750000000
O    -2.851000000     1.304000000     5.699000000
H    -3.673000000     0.813000000     5.716000000
H    -2.259000000     0.762000000     5.177000000
O    -2.500000000    -6.863000000     6.506000000
H    -2.942000000    -6.566000000     7.302000000
H    -2.614000000    -6.143000000     5.886000000
O     1.689000000     0.122000000     9.557000000
H     2.103000000     0.964000000     9.369000000
H     1.471000000    -0.236000000     8.697000000
O     0.927000000    -2.261000000    10.776000000
H     1.235000000    -1.558000000    10.204000000
H     1.568000000    -2.290000000    11.486000000
O     2.459000000    -2.921000000     5.929000000
H     1.668000000    -2.685000000     5.445000000
H     2.531000000    -2.252000000     6.611000000
O    -3.157000000    -1.807000000     6.279000000
H    -2.729000000    -1.903000000     7.130000000
H    -2.527000000    -1.319000000     5.748000000
O     5.228000000     2.401000000     3.151000000
H     4.673000000     1.747000000     3.575000000
H     4.893000000     3.241000000     3.466000000
O     0.688000000    -3.791000000     8.384000000
H     0.672000000    -3.057000000     7.770000000
H     0.837000000    -3.387000000     9.238000000
