215
-1467.27274
C    -1.057000000    -0.016000000    -5.270000000
H    -1.488000000    -0.958000000    -4.940000000
C     0.289000000     0.248000000    -4.974000000
C     0.831000000     1.480000000    -5.347000000
H     1.754000000     1.737000000    -4.834000000
C     1.039000000    -0.789000000    -4.145000000
O     0.638000000    -2.110000000    -4.503000000
H     0.781000000    -0.744000000    -3.077000000
O     2.402000000    -0.649000000    -4.292000000
C     3.277000000    -0.801000000    -3.259000000
C     3.760000000     0.355000000    -2.697000000
H     3.415000000     1.314000000    -3.073000000
C     4.548000000     0.316000000    -1.536000000
O     4.854000000     1.502000000    -0.846000000
C     4.665000000    -0.929000000    -0.929000000
C     5.404000000    -1.073000000     0.465000000
H     5.993000000    -1.986000000     0.576000000
C     4.581000000    -0.933000000     1.721000000
C     4.099000000    -2.120000000     2.346000000
H     4.333000000    -3.055000000     1.844000000
H     6.124000000    -0.254000000     0.519000000
C     4.123000000    -2.080000000    -1.458000000
H     4.412000000    -3.016000000    -0.987000000
C     3.404000000    -2.040000000    -2.684000000
C     2.947000000    -3.307000000    -3.408000000
H     3.629000000    -4.073000000    -3.032000000
H     3.051000000    -3.207000000    -4.490000000
C     1.542000000    -3.676000000    -2.922000000
C     1.359000000    -4.562000000    -1.813000000
H     2.263000000    -4.933000000    -1.336000000
C     0.459000000    -2.933000000    -3.403000000
C    -0.748000000    -3.122000000    -2.836000000
H    -1.500000000    -2.468000000    -3.268000000
C    -0.969000000    -3.979000000    -1.806000000
O    -2.242000000    -3.953000000    -1.296000000
C    -2.400000000    -3.174000000    -0.143000000
C    -3.609000000    -2.362000000    -0.208000000
C    -4.526000000    -2.313000000     0.916000000
H    -4.433000000    -2.932000000     1.805000000
C    -3.932000000    -1.563000000    -1.359000000
H    -3.289000000    -1.630000000    -2.233000000
O    -2.340000000    -4.122000000     0.958000000
H    -1.550000000    -2.475000000    -0.156000000
C     0.127000000    -4.657000000    -1.182000000
C    -0.055000000    -5.555000000     0.015000000
H     0.844000000    -6.171000000    -0.059000000
H    -0.938000000    -6.192000000    -0.059000000
C     0.000000000    -4.757000000     1.267000000
C     1.164000000    -4.544000000     1.966000000
H     2.083000000    -5.026000000     1.642000000
C    -1.206000000    -4.138000000     1.700000000
C    -1.163000000    -3.429000000     2.929000000
H    -2.132000000    -3.029000000     3.218000000
C     0.055000000    -3.215000000     3.629000000
O    -0.001000000    -2.282000000     4.691000000
C     0.361000000    -0.966000000     4.378000000
C    -0.593000000     0.072000000     4.863000000
C    -1.938000000    -0.298000000     4.958000000
H    -2.361000000    -1.286000000     4.793000000
C    -0.207000000     1.390000000     5.005000000
H     0.811000000     1.668000000     4.745000000
O     1.776000000    -0.713000000     4.753000000
H     0.418000000    -0.834000000     3.287000000
C     1.229000000    -3.678000000     3.105000000
C     2.486000000    -3.333000000     3.875000000
H     3.144000000    -4.203000000     3.912000000
H     2.197000000    -3.206000000     4.921000000
C     3.137000000    -2.066000000     3.344000000
C     2.749000000    -0.806000000     3.855000000
C     3.132000000     0.382000000     3.155000000
H     2.714000000     1.342000000     3.444000000
C     4.074000000     0.329000000     2.145000000
O     4.454000000     1.509000000     1.551000000
C     3.943000000     1.838000000     0.188000000
H     3.049000000     1.212000000     0.053000000
C     3.355000000     3.224000000     0.176000000
C     2.942000000     3.795000000    -0.976000000
H     3.144000000     3.233000000    -1.884000000
C     3.140000000     3.925000000     1.409000000
H     3.578000000     3.610000000     2.353000000
C     2.570000000     5.184000000     1.445000000
O     2.602000000     5.882000000     2.618000000
C     2.232000000     5.761000000     0.201000000
H     1.907000000     6.797000000     0.146000000
C     2.418000000     5.085000000    -1.015000000
O     1.912000000     5.697000000    -2.125000000
C     2.192000000     5.344000000    -3.397000000
C     1.398000000     4.451000000    -4.106000000
H     0.486000000     4.120000000    -3.616000000
C     3.285000000     5.843000000    -4.004000000
H     3.959000000     6.524000000    -3.491000000
C     3.490000000     5.583000000    -5.370000000
H     4.314000000     6.088000000    -5.866000000
C     2.651000000     4.821000000    -6.109000000
H     2.758000000     4.716000000    -7.185000000
C     1.579000000     4.215000000    -5.457000000
O     0.480000000     3.718000000    -6.211000000
C     0.056000000     2.387000000    -6.025000000
C    -1.246000000     2.105000000    -6.442000000
H    -1.778000000     2.800000000    -7.087000000
C    -1.822000000     0.926000000    -6.053000000
O    -3.157000000     0.711000000    -6.507000000
C    -4.073000000     0.034000000    -5.823000000
C    -4.191000000     0.338000000    -4.453000000
H    -3.409000000     0.880000000    -3.927000000
C    -5.052000000    -0.704000000    -6.460000000
H    -5.090000000    -0.826000000    -7.540000000
C    -6.066000000    -1.344000000    -5.741000000
H    -6.788000000    -2.029000000    -6.180000000
C    -6.164000000    -1.112000000    -4.412000000
H    -6.965000000    -1.529000000    -3.806000000
C    -5.268000000    -0.247000000    -3.752000000
O    -5.502000000    -0.031000000    -2.427000000
C    -5.096000000    -0.734000000    -1.357000000
C    -5.942000000    -0.715000000    -0.246000000
H    -6.824000000    -0.081000000    -0.281000000
C    -5.568000000    -1.415000000     0.892000000
O    -6.408000000    -1.396000000     1.955000000
C    -5.974000000    -1.625000000     3.173000000
C    -5.372000000    -0.554000000     3.824000000
H    -5.289000000     0.358000000     3.240000000
C    -6.058000000    -2.870000000     3.763000000
H    -6.812000000    -3.562000000     3.396000000
C    -5.577000000    -3.072000000     5.036000000
H    -5.782000000    -4.080000000     5.390000000
C    -4.825000000    -2.065000000     5.670000000
H    -4.512000000    -2.312000000     6.681000000
C    -4.777000000    -0.832000000     5.030000000
O    -4.178000000     0.192000000     5.678000000
C    -2.894000000     0.614000000     5.437000000
C    -2.494000000     1.923000000     5.571000000
H    -3.198000000     2.717000000     5.805000000
C    -1.189000000     2.343000000     5.337000000
O    -0.810000000     3.704000000     5.249000000
C     0.515000000     4.095000000     5.103000000
C     1.498000000     3.897000000     6.112000000
H     1.308000000     3.325000000     7.016000000
C     2.836000000     4.416000000     5.921000000
H     3.662000000     4.200000000     6.594000000
C     3.129000000     5.130000000     4.794000000
H     4.107000000     5.597000000     4.704000000
C     2.180000000     5.257000000     3.835000000
C     0.917000000     4.725000000     3.983000000
H     0.265000000     4.910000000     3.134000000
C    -1.638000000     1.322000000     1.245000000
H    -2.350000000     1.728000000     1.958000000
C    -1.169000000    -0.006000000     1.370000000
H    -1.707000000    -0.631000000     2.077000000
C    -0.190000000    -0.492000000     0.527000000
H     0.090000000    -1.528000000     0.669000000
C     0.306000000     0.281000000    -0.488000000
H     1.157000000    -0.054000000    -1.075000000
C    -0.173000000     1.604000000    -0.588000000
H     0.179000000     2.313000000    -1.334000000
C    -1.140000000     2.110000000     0.254000000
C    -1.779000000     3.468000000     0.067000000
O    -1.531000000     3.946000000    -1.038000000
O    -2.557000000     3.960000000     0.913000000
O    -7.267000000     6.609000000    -2.246000000
H    -6.330000000     6.755000000    -2.115000000
H    -7.541000000     6.110000000    -1.476000000
O    -2.715000000     6.411000000     4.644000000
H    -2.392000000     6.290000000     3.751000000
H    -2.018000000     6.063000000     5.200000000
O    -5.822000000     5.030000000     3.413000000
H    -4.968000000     4.640000000     3.599000000
H    -6.394000000     4.696000000     4.104000000
O    -0.268000000     8.125000000    -0.306000000
H    -0.934000000     7.586000000     0.121000000
H     0.324000000     8.379000000     0.402000000
O    -4.740000000     4.620000000    -0.637000000
H    -4.013000000     4.413000000    -0.050000000
H    -4.433000000     5.372000000    -1.143000000
O    -0.854000000     6.190000000    -2.566000000
H    -1.035000000     5.377000000    -2.095000000
H    -0.339000000     6.713000000    -1.951000000
O     0.373000000     8.230000000    -3.784000000
H    -0.433000000     8.739000000    -3.866000000
H     0.085000000     7.374000000    -3.468000000
O    -2.063000000     6.239000000     1.962000000
H    -2.535000000     6.902000000     1.457000000
H    -2.044000000     5.472000000     1.390000000
O    -7.550000000     2.243000000     2.241000000
H    -7.590000000     3.182000000     2.423000000
H    -7.101000000     2.181000000     1.398000000
O    -3.230000000     3.692000000    -2.903000000
H    -2.550000000     3.694000000    -2.229000000
H    -3.928000000     4.236000000    -2.539000000
O    -4.085000000     3.911000000    -5.839000000
H    -4.862000000     3.354000000    -5.887000000
H    -3.588000000     3.566000000    -5.097000000
O    -4.094000000     7.005000000    -1.894000000
H    -3.540000000     7.664000000    -1.476000000
H    -3.700000000     6.873000000    -2.756000000
O    -6.025000000     2.261000000     0.034000000
H    -5.560000000     1.483000000    -0.275000000
H    -5.442000000     2.989000000    -0.179000000
O    -5.078000000     7.957000000     2.137000000
H    -5.407000000     7.105000000     1.851000000
H    -4.854000000     7.830000000     3.059000000
O    -2.936000000     8.417000000     0.534000000
H    -2.518000000     9.237000000     0.798000000
H    -3.735000000     8.376000000     1.060000000
O    -6.856000000     5.417000000     0.876000000
H    -6.593000000     5.089000000     1.736000000
H    -6.142000000     5.160000000     0.293000000
O    -3.017000000     6.336000000    -4.326000000
H    -3.468000000     5.656000000    -4.826000000
H    -2.227000000     5.906000000    -3.996000000
O    -3.457000000     3.753000000     3.396000000
H    -3.294000000     3.810000000     2.454000000
H    -2.719000000     4.212000000     3.795000000
O    -7.521000000     2.512000000    -2.831000000
H    -7.974000000     1.751000000    -2.466000000
H    -6.610000000     2.402000000    -2.558000000
