215
-1436.18002
C     3.953000000    -2.520000000     1.851000000
H     4.180000000    -1.471000000     2.023000000
C     3.599000000    -3.075000000     0.626000000
C     3.116000000    -4.347000000     0.485000000
H     2.694000000    -4.617000000    -0.479000000
C     3.725000000    -2.192000000    -0.615000000
O     4.714000000    -1.132000000    -0.577000000
H     2.754000000    -1.677000000    -0.573000000
O     3.840000000    -2.934000000    -1.885000000
C     2.960000000    -2.486000000    -2.911000000
C     1.752000000    -3.202000000    -3.088000000
H     1.579000000    -4.051000000    -2.431000000
C     0.738000000    -2.740000000    -3.956000000
O    -0.470000000    -3.291000000    -3.653000000
C     0.960000000    -1.556000000    -4.737000000
C    -0.049000000    -1.085000000    -5.754000000
H     0.406000000    -0.534000000    -6.580000000
C    -0.980000000    -0.119000000    -5.045000000
C    -0.694000000     1.279000000    -5.078000000
H     0.105000000     1.706000000    -5.680000000
H    -0.432000000    -2.019000000    -6.171000000
C     2.227000000    -0.925000000    -4.588000000
H     2.360000000    -0.010000000    -5.159000000
C     3.188000000    -1.297000000    -3.642000000
C     4.447000000    -0.482000000    -3.416000000
H     4.764000000    -0.057000000    -4.370000000
H     5.153000000    -1.244000000    -3.078000000
C     4.326000000     0.565000000    -2.317000000
C     4.139000000     1.902000000    -2.627000000
H     4.118000000     2.267000000    -3.651000000
C     4.405000000     0.147000000    -1.006000000
C     4.329000000     1.042000000     0.067000000
H     4.405000000     0.678000000     1.089000000
C     3.915000000     2.344000000    -0.230000000
O     3.557000000     3.166000000     0.804000000
C     2.114000000     3.434000000     1.034000000
C     1.756000000     3.177000000     2.497000000
C     0.417000000     3.483000000     2.970000000
H    -0.298000000     3.922000000     2.280000000
C     2.636000000     2.512000000     3.369000000
H     3.590000000     2.128000000     3.018000000
O     1.777000000     4.813000000     0.573000000
H     1.520000000     2.705000000     0.463000000
C     3.838000000     2.730000000    -1.578000000
C     3.434000000     4.179000000    -1.900000000
H     3.675000000     4.410000000    -2.939000000
H     4.009000000     4.871000000    -1.280000000
C     1.917000000     4.435000000    -1.826000000
C     1.156000000     3.971000000    -2.956000000
H     1.762000000     3.793000000    -3.840000000
C     1.150000000     4.743000000    -0.640000000
C    -0.225000000     4.718000000    -0.609000000
H    -0.751000000     4.915000000     0.322000000
C    -0.946000000     4.453000000    -1.738000000
O    -2.289000000     4.330000000    -1.588000000
C    -2.809000000     3.027000000    -1.455000000
C    -4.031000000     3.004000000    -0.530000000
C    -4.098000000     3.987000000     0.457000000
H    -3.304000000     4.717000000     0.591000000
C    -4.977000000     1.956000000    -0.617000000
H    -4.788000000     1.214000000    -1.389000000
O    -3.224000000     2.572000000    -2.736000000
H    -1.979000000     2.424000000    -1.057000000
C    -0.233000000     4.047000000    -2.898000000
C    -0.971000000     3.695000000    -4.155000000
H    -0.328000000     3.894000000    -5.015000000
H    -1.919000000     4.200000000    -4.346000000
C    -1.411000000     2.197000000    -4.262000000
C    -2.427000000     1.772000000    -3.475000000
C    -2.679000000     0.391000000    -3.402000000
H    -3.602000000     0.097000000    -2.909000000
C    -1.951000000    -0.518000000    -4.120000000
O    -2.259000000    -1.828000000    -3.999000000
C    -1.448000000    -2.480000000    -3.019000000
H    -0.976000000    -1.670000000    -2.444000000
C    -2.257000000    -3.320000000    -1.952000000
C    -1.741000000    -4.510000000    -1.495000000
H    -0.799000000    -4.936000000    -1.832000000
C    -3.633000000    -3.081000000    -1.684000000
H    -4.138000000    -2.269000000    -2.201000000
C    -4.353000000    -3.870000000    -0.736000000
O    -5.640000000    -3.565000000    -0.532000000
C    -3.742000000    -5.020000000    -0.304000000
H    -4.322000000    -5.654000000     0.361000000
C    -2.453000000    -5.370000000    -0.650000000
O    -2.015000000    -6.639000000    -0.368000000
C    -0.674000000    -7.047000000    -0.238000000
C     0.246000000    -6.332000000     0.541000000
H    -0.007000000    -5.376000000     0.993000000
C    -0.285000000    -8.158000000    -0.998000000
H    -1.098000000    -8.578000000    -1.584000000
C     1.097000000    -8.576000000    -1.056000000
H     1.449000000    -9.409000000    -1.659000000
C     1.989000000    -7.934000000    -0.152000000
H     3.032000000    -8.238000000    -0.179000000
C     1.530000000    -6.902000000     0.622000000
O     2.462000000    -6.326000000     1.508000000
C     2.921000000    -5.107000000     1.650000000
C     3.289000000    -4.674000000     2.888000000
H     3.413000000    -5.460000000     3.628000000
C     3.795000000    -3.336000000     2.962000000
O     4.114000000    -2.801000000     4.266000000
C     4.529000000    -1.523000000     4.411000000
C     3.601000000    -0.680000000     4.978000000
H     2.573000000    -1.011000000     4.858000000
C     5.837000000    -1.215000000     4.249000000
H     6.443000000    -1.993000000     3.791000000
C     6.303000000    -0.040000000     4.792000000
H     7.352000000     0.232000000     4.709000000
C     5.337000000     0.900000000     5.264000000
H     5.688000000     1.922000000     5.384000000
C     3.988000000     0.653000000     5.373000000
O     3.037000000     1.638000000     5.597000000
C     2.190000000     2.226000000     4.668000000
C     0.910000000     2.572000000     5.114000000
H     0.610000000     2.337000000     6.132000000
C    -0.045000000     3.075000000     4.190000000
O    -1.248000000     3.288000000     4.782000000
C    -2.049000000     4.333000000     4.304000000
C    -3.325000000     4.134000000     3.765000000
H    -3.659000000     3.105000000     3.661000000
C    -1.641000000     5.657000000     4.525000000
H    -0.652000000     5.880000000     4.918000000
C    -2.476000000     6.703000000     4.125000000
H    -2.138000000     7.727000000     4.265000000
C    -3.621000000     6.520000000     3.366000000
H    -4.098000000     7.404000000     2.948000000
C    -4.062000000     5.187000000     3.203000000
O    -5.191000000     4.897000000     2.379000000
C    -5.167000000     3.981000000     1.343000000
C    -6.170000000     2.990000000     1.199000000
H    -7.003000000     2.860000000     1.884000000
C    -6.087000000     2.034000000     0.215000000
O    -7.029000000     0.973000000     0.375000000
C    -6.553000000    -0.221000000     0.835000000
C    -6.100000000    -0.397000000     2.140000000
H    -6.258000000     0.378000000     2.886000000
C    -5.600000000    -1.631000000     2.606000000
H    -5.229000000    -1.623000000     3.627000000
C    -5.542000000    -2.706000000     1.698000000
H    -5.162000000    -3.643000000     2.097000000
C    -5.946000000    -2.496000000     0.328000000
C    -6.473000000    -1.308000000    -0.098000000
H    -6.659000000    -1.116000000    -1.152000000
C    -1.682000000     0.173000000     2.072000000
H    -2.668000000     0.244000000     2.524000000
C    -1.652000000     0.471000000     0.700000000
H    -2.552000000     0.753000000     0.162000000
C    -0.416000000     0.439000000     0.068000000
H    -0.196000000     0.772000000    -0.953000000
C     0.730000000     0.206000000     0.768000000
H     1.677000000     0.292000000     0.241000000
C     0.656000000    -0.109000000     2.122000000
H     1.582000000    -0.400000000     2.613000000
C    -0.570000000    -0.217000000     2.745000000
C    -0.678000000    -0.785000000     4.152000000
O     0.233000000    -1.305000000     4.734000000
O    -1.744000000    -0.734000000     4.712000000
O    -4.618000000    -2.502000000     6.066000000
H    -3.753000000    -2.693000000     5.702000000
H    -4.885000000    -3.317000000     6.490000000
O    -1.030000000    -6.166000000     6.954000000
H    -1.352000000    -6.414000000     7.821000000
H    -0.211000000    -5.703000000     7.125000000
O    -2.041000000    -3.177000000     6.023000000
H    -1.952000000    -3.853000000     5.351000000
H    -1.955000000    -2.352000000     5.546000000
O    -0.488000000    -2.748000000     0.756000000
H    -1.252000000    -3.035000000     0.255000000
H    -0.600000000    -1.801000000     0.840000000
O    -4.224000000    -0.376000000     7.829000000
H    -3.576000000     0.297000000     7.622000000
H    -3.826000000    -1.193000000     7.528000000
O    -6.122000000     2.050000000     5.967000000
H    -6.063000000     2.841000000     6.503000000
H    -5.217000000     1.862000000     5.718000000
O    -6.657000000    -0.722000000     5.949000000
H    -6.499000000     0.221000000     5.901000000
H    -5.800000000    -1.098000000     6.153000000
O    -3.470000000     1.201000000     5.462000000
H    -2.917000000     1.882000000     5.844000000
H    -2.853000000     0.558000000     5.114000000
O     1.334000000     2.201000000     8.796000000
H     2.272000000     2.359000000     8.690000000
H     1.275000000     1.284000000     9.064000000
O    -1.939000000    -5.745000000     4.378000000
H    -1.511000000    -5.966000000     5.205000000
H    -1.344000000    -5.122000000     3.960000000
O    -1.905000000     1.803000000     9.802000000
H    -1.772000000     1.586000000     8.879000000
H    -1.295000000     1.234000000    10.272000000
O    -3.764000000    -4.882000000     8.318000000
H    -3.091000000    -5.021000000     7.651000000
H    -4.312000000    -5.666000000     8.271000000
O    -1.480000000     0.372000000     7.402000000
H    -1.493000000     0.080000000     6.491000000
H    -1.200000000    -0.398000000     7.896000000
O    -0.310000000     4.056000000     7.911000000
H     0.022000000     3.256000000     8.317000000
H     0.252000000     4.189000000     7.148000000
O     1.571000000    -2.689000000     6.722000000
H     1.691000000    -3.511000000     6.248000000
H     1.101000000    -2.125000000     6.108000000
O    -1.169000000    -2.006000000     8.557000000
H    -1.375000000    -2.536000000     7.787000000
H    -1.629000000    -2.440000000     9.276000000
O     1.011000000    -2.054000000    10.070000000
H     1.666000000    -2.464000000     9.505000000
H     0.326000000    -1.761000000     9.470000000
O    -0.340000000    -3.695000000     3.643000000
H    -0.370000000    -3.446000000     2.720000000
H    -0.117000000    -2.886000000     4.103000000
O     3.441000000    -2.862000000     8.678000000
H     2.870000000    -3.124000000     7.957000000
H     3.875000000    -2.068000000     8.364000000
