215
-1446.11538
C    -1.196000000    -0.500000000    -5.300000000
H    -1.605000000    -1.442000000    -4.943000000
C     0.103000000    -0.147000000    -4.870000000
C     0.534000000     1.051000000    -5.336000000
H     1.522000000     1.453000000    -5.129000000
C     1.019000000    -1.074000000    -4.008000000
O     0.689000000    -2.448000000    -4.403000000
H     0.946000000    -0.843000000    -2.935000000
O     2.369000000    -0.885000000    -4.493000000
C     3.397000000    -0.984000000    -3.556000000
C     3.570000000     0.292000000    -2.894000000
H     3.191000000     1.133000000    -3.469000000
C     4.264000000     0.406000000    -1.691000000
O     4.313000000     1.637000000    -1.146000000
C     4.714000000    -0.799000000    -1.099000000
C     5.446000000    -0.812000000     0.233000000
H     6.034000000    -1.729000000     0.305000000
C     4.560000000    -0.670000000     1.507000000
C     4.206000000    -1.808000000     2.262000000
H     4.500000000    -2.791000000     1.905000000
H     6.217000000    -0.040000000     0.195000000
C     4.499000000    -2.028000000    -1.760000000
H     4.739000000    -2.964000000    -1.261000000
C     3.717000000    -2.151000000    -2.913000000
C     3.302000000    -3.539000000    -3.435000000
H     4.115000000    -4.239000000    -3.230000000
H     3.230000000    -3.420000000    -4.518000000
C     1.889000000    -3.916000000    -2.841000000
C     1.824000000    -4.634000000    -1.638000000
H     2.797000000    -4.855000000    -1.208000000
C     0.664000000    -3.341000000    -3.361000000
C    -0.511000000    -3.652000000    -2.706000000
H    -1.420000000    -3.264000000    -3.159000000
C    -0.567000000    -4.394000000    -1.568000000
O    -1.825000000    -4.450000000    -0.992000000
C    -1.957000000    -3.606000000     0.151000000
C    -3.261000000    -2.876000000     0.029000000
C    -4.191000000    -3.098000000     1.008000000
H    -3.923000000    -3.682000000     1.884000000
C    -3.483000000    -2.011000000    -1.072000000
H    -2.683000000    -1.749000000    -1.760000000
O    -1.809000000    -4.497000000     1.325000000
H    -1.164000000    -2.854000000     0.025000000
C     0.595000000    -4.913000000    -0.961000000
C     0.607000000    -5.627000000     0.347000000
H     1.420000000    -6.348000000     0.453000000
H    -0.310000000    -6.218000000     0.307000000
C     0.523000000    -4.682000000     1.518000000
C     1.720000000    -4.251000000     2.119000000
H     2.666000000    -4.689000000     1.813000000
C    -0.696000000    -4.298000000     2.035000000
C    -0.769000000    -3.496000000     3.171000000
H    -1.677000000    -2.956000000     3.427000000
C     0.394000000    -2.950000000     3.684000000
O     0.259000000    -1.947000000     4.614000000
C     0.672000000    -0.556000000     4.303000000
C    -0.405000000     0.472000000     4.737000000
C    -1.759000000     0.291000000     4.536000000
H    -2.003000000    -0.761000000     4.417000000
C    -0.011000000     1.751000000     5.104000000
H     1.047000000     1.992000000     5.163000000
O     1.960000000    -0.299000000     4.738000000
H     0.657000000    -0.513000000     3.204000000
C     1.591000000    -3.361000000     3.186000000
C     2.845000000    -2.959000000     4.009000000
H     3.618000000    -3.728000000     4.067000000
H     2.500000000    -2.848000000     5.039000000
C     3.348000000    -1.679000000     3.335000000
C     2.941000000    -0.385000000     3.774000000
C     3.292000000     0.757000000     3.071000000
H     3.035000000     1.741000000     3.456000000
C     4.085000000     0.607000000     1.912000000
O     4.289000000     1.677000000     1.034000000
C     3.394000000     1.847000000    -0.072000000
H     2.554000000     1.137000000    -0.051000000
C     2.760000000     3.268000000    -0.069000000
C     1.984000000     3.629000000    -1.221000000
H     2.063000000     3.043000000    -2.133000000
C     2.787000000     4.068000000     1.101000000
H     3.261000000     3.843000000     2.053000000
C     2.016000000     5.213000000     1.103000000
O     2.022000000     6.062000000     2.249000000
C     1.324000000     5.650000000     0.022000000
H     0.922000000     6.655000000    -0.071000000
C     1.304000000     4.875000000    -1.107000000
O     0.625000000     5.369000000    -2.240000000
C     1.128000000     5.001000000    -3.520000000
C     0.344000000     4.256000000    -4.455000000
H    -0.652000000     3.855000000    -4.284000000
C     2.388000000     5.462000000    -3.923000000
H     3.022000000     6.127000000    -3.343000000
C     2.961000000     5.142000000    -5.185000000
H     3.959000000     5.479000000    -5.452000000
C     2.162000000     4.460000000    -6.091000000
H     2.619000000     4.126000000    -7.018000000
C     0.893000000     3.968000000    -5.681000000
O     0.206000000     3.137000000    -6.534000000
C    -0.261000000     1.856000000    -6.161000000
C    -1.459000000     1.426000000    -6.562000000
H    -2.052000000     2.061000000    -7.215000000
C    -1.976000000     0.248000000    -6.136000000
O    -3.245000000    -0.101000000    -6.570000000
C    -4.241000000    -0.563000000    -5.726000000
C    -4.168000000    -0.170000000    -4.413000000
H    -3.410000000     0.470000000    -3.970000000
C    -5.076000000    -1.491000000    -6.193000000
H    -5.092000000    -1.851000000    -7.218000000
C    -6.018000000    -2.047000000    -5.268000000
H    -6.830000000    -2.641000000    -5.680000000
C    -6.038000000    -1.603000000    -3.918000000
H    -6.783000000    -1.991000000    -3.228000000
C    -4.973000000    -0.843000000    -3.473000000
O    -4.903000000    -0.445000000    -2.118000000
C    -4.727000000    -1.368000000    -1.140000000
C    -5.632000000    -1.538000000    -0.162000000
H    -6.594000000    -1.032000000    -0.168000000
C    -5.382000000    -2.345000000     0.929000000
O    -6.227000000    -2.390000000     2.004000000
C    -5.853000000    -1.819000000     3.296000000
C    -5.144000000    -0.593000000     3.285000000
H    -5.033000000    -0.158000000     2.295000000
C    -6.200000000    -2.366000000     4.517000000
H    -6.844000000    -3.241000000     4.548000000
C    -5.717000000    -1.769000000     5.702000000
H    -6.128000000    -2.048000000     6.669000000
C    -4.948000000    -0.662000000     5.583000000
H    -4.621000000    -0.198000000     6.510000000
C    -4.645000000     0.006000000     4.437000000
O    -4.001000000     1.251000000     4.394000000
C    -2.667000000     1.374000000     4.639000000
C    -2.249000000     2.581000000     5.162000000
H    -2.947000000     3.389000000     5.362000000
C    -0.869000000     2.783000000     5.370000000
O    -0.527000000     3.916000000     5.962000000
C     0.458000000     4.711000000     5.373000000
C     1.472000000     5.085000000     6.250000000
H     1.273000000     4.813000000     7.284000000
C     2.613000000     5.833000000     5.876000000
H     3.416000000     6.085000000     6.564000000
C     2.802000000     6.110000000     4.496000000
H     3.692000000     6.652000000     4.188000000
C     1.819000000     5.699000000     3.591000000
C     0.677000000     4.991000000     4.012000000
H    -0.031000000     4.638000000     3.266000000
C    -2.058000000     1.319000000     1.311000000
H    -2.725000000     1.315000000     2.169000000
C    -1.191000000     0.224000000     1.271000000
H    -1.273000000    -0.554000000     2.025000000
C    -0.214000000     0.101000000     0.288000000
H     0.491000000    -0.749000000     0.276000000
C    -0.247000000     1.070000000    -0.695000000
H     0.504000000     0.963000000    -1.474000000
C    -1.096000000     2.142000000    -0.708000000
H    -1.005000000     2.873000000    -1.508000000
C    -1.996000000     2.332000000     0.349000000
C    -2.952000000     3.468000000     0.285000000
O    -3.312000000     3.886000000    -0.788000000
O    -3.513000000     3.859000000     1.246000000
O    -4.535000000     8.773000000    -2.003000000
H    -4.461000000     7.840000000    -1.801000000
H    -3.766000000     9.169000000    -1.591000000
O    -6.837000000     6.959000000    -0.325000000
H    -6.761000000     7.464000000     0.485000000
H    -6.823000000     6.046000000    -0.041000000
O    -2.764000000     6.288000000     5.348000000
H    -2.619000000     6.049000000     4.433000000
H    -2.343000000     5.588000000     5.848000000
O    -6.707000000     5.710000000     3.930000000
H    -6.166000000     4.927000000     3.830000000
H    -7.135000000     5.599000000     4.779000000
O    -2.158000000     7.914000000     0.735000000
H    -2.028000000     7.452000000    -0.094000000
H    -1.377000000     8.458000000     0.830000000
O    -4.424000000     6.074000000    -1.675000000
H    -4.100000000     5.177000000    -1.591000000
H    -5.240000000     6.081000000    -1.174000000
O    -1.764000000     6.624000000    -1.619000000
H    -1.369000000     5.902000000    -2.108000000
H    -2.707000000     6.492000000    -1.718000000
O    -0.210000000     8.760000000    -2.444000000
H    -0.406000000     7.907000000    -2.055000000
H    -1.010000000     9.270000000    -2.319000000
O    -2.440000000     6.047000000     2.617000000
H    -2.344000000     6.720000000     1.944000000
H    -2.934000000     5.348000000     2.187000000
O    -6.951000000     1.742000000     2.278000000
H    -7.122000000     2.677000000     2.386000000
H    -6.585000000     1.665000000     1.397000000
O    -3.059000000     3.170000000    -3.281000000
H    -2.886000000     3.348000000    -2.357000000
H    -4.013000000     3.191000000    -3.355000000
O    -4.210000000     5.644000000    -4.627000000
H    -5.125000000     5.915000000    -4.547000000
H    -3.893000000     5.604000000    -3.725000000
O    -6.111000000     4.418000000     0.107000000
H    -6.182000000     3.671000000    -0.488000000
H    -5.197000000     4.411000000     0.392000000
O    -8.896000000     4.105000000     2.100000000
H    -9.142000000     3.921000000     3.006000000
H    -7.981000000     4.380000000     2.150000000
O    -5.881000000     3.166000000    -3.373000000
H    -6.635000000     3.624000000    -3.743000000
H    -6.096000000     3.060000000    -2.447000000
O    -3.994000000     8.874000000     2.795000000
H    -3.423000000     9.053000000     3.542000000
H    -3.397000000     8.610000000     2.095000000
O    -6.850000000     7.788000000     2.278000000
H    -6.617000000     7.007000000     2.781000000
H    -6.059000000     8.326000000     2.291000000
O    -4.887000000     3.830000000     3.451000000
H    -4.654000000     3.836000000     2.522000000
H    -4.319000000     3.162000000     3.836000000
O    -6.112000000     1.920000000    -0.759000000
H    -5.538000000     1.289000000    -1.192000000
H    -6.997000000     1.627000000    -0.977000000
