215
-1477.49731
C     4.837000000    -1.190000000     1.372000000
H     5.082000000    -0.143000000     1.216000000
C     4.265000000    -1.867000000     0.299000000
C     4.048000000    -3.216000000     0.398000000
H     3.669000000    -3.796000000    -0.440000000
C     3.961000000    -1.197000000    -1.023000000
O     4.688000000     0.062000000    -1.130000000
H     2.893000000    -0.936000000    -1.041000000
O     4.212000000    -2.058000000    -2.163000000
C     3.283000000    -1.954000000    -3.140000000
C     2.217000000    -2.874000000    -3.121000000
H     2.412000000    -3.735000000    -2.486000000
C     1.145000000    -2.773000000    -3.955000000
O     0.118000000    -3.629000000    -3.734000000
C     0.974000000    -1.592000000    -4.688000000
C    -0.368000000    -1.404000000    -5.438000000
H    -0.129000000    -0.924000000    -6.389000000
C    -1.408000000    -0.714000000    -4.659000000
C    -1.527000000     0.656000000    -4.803000000
H    -0.859000000     1.248000000    -5.423000000
H    -0.607000000    -2.407000000    -5.797000000
C     1.977000000    -0.617000000    -4.710000000
H     1.728000000     0.302000000    -5.235000000
C     3.151000000    -0.813000000    -3.909000000
C     4.069000000     0.421000000    -3.836000000
H     4.077000000     0.945000000    -4.794000000
H     5.084000000     0.056000000    -3.663000000
C     3.627000000     1.465000000    -2.772000000
C     2.930000000     2.608000000    -3.121000000
H     2.571000000     2.768000000    -4.134000000
C     4.000000000     1.220000000    -1.439000000
C     3.759000000     2.149000000    -0.480000000
H     4.078000000     1.903000000     0.529000000
C     2.988000000     3.221000000    -0.798000000
O     2.448000000     4.001000000     0.220000000
C     1.086000000     3.822000000     0.670000000
C     0.974000000     3.679000000     2.156000000
C    -0.273000000     3.624000000     2.747000000
H    -1.206000000     3.683000000     2.193000000
C     2.127000000     3.387000000     2.960000000
H     3.116000000     3.462000000     2.516000000
O     0.297000000     4.877000000     0.141000000
H     0.834000000     2.839000000     0.246000000
C     2.579000000     3.470000000    -2.085000000
C     1.646000000     4.660000000    -2.368000000
H     1.827000000     5.037000000    -3.377000000
H     1.842000000     5.436000000    -1.625000000
C     0.204000000     4.299000000    -2.202000000
C    -0.504000000     3.894000000    -3.295000000
H    -0.029000000     3.635000000    -4.237000000
C    -0.415000000     4.502000000    -0.990000000
C    -1.768000000     4.302000000    -0.830000000
H    -2.301000000     4.605000000     0.067000000
C    -2.469000000     3.808000000    -1.921000000
O    -3.830000000     3.370000000    -1.681000000
C    -3.956000000     1.972000000    -1.279000000
C    -4.938000000     1.846000000    -0.124000000
C    -5.171000000     2.892000000     0.782000000
H    -4.711000000     3.869000000     0.662000000
C    -5.484000000     0.626000000     0.181000000
H    -5.477000000    -0.281000000    -0.418000000
O    -4.377000000     1.203000000    -2.396000000
H    -3.053000000     1.537000000    -0.824000000
C    -1.847000000     3.567000000    -3.162000000
C    -2.608000000     2.886000000    -4.297000000
H    -2.028000000     3.241000000    -5.151000000
H    -3.616000000     3.269000000    -4.471000000
C    -2.508000000     1.399000000    -4.102000000
C    -3.365000000     0.678000000    -3.209000000
C    -3.245000000    -0.721000000    -3.098000000
H    -3.951000000    -1.323000000    -2.532000000
C    -2.270000000    -1.393000000    -3.810000000
O    -2.059000000    -2.711000000    -3.679000000
C    -0.932000000    -3.116000000    -2.899000000
H    -0.466000000    -2.262000000    -2.387000000
C    -1.452000000    -4.158000000    -1.862000000
C    -0.529000000    -5.051000000    -1.338000000
H     0.487000000    -5.029000000    -1.724000000
C    -2.768000000    -4.134000000    -1.368000000
H    -3.539000000    -3.453000000    -1.720000000
C    -3.166000000    -5.046000000    -0.404000000
O    -4.460000000    -4.942000000     0.155000000
C    -2.259000000    -5.968000000     0.075000000
H    -2.603000000    -6.688000000     0.813000000
C    -0.933000000    -5.954000000    -0.320000000
O    -0.091000000    -6.845000000     0.327000000
C     1.248000000    -6.848000000     0.049000000
C     2.017000000    -5.955000000     0.868000000
H     1.514000000    -5.182000000     1.443000000
C     1.905000000    -7.716000000    -0.839000000
H     1.253000000    -8.387000000    -1.393000000
C     3.282000000    -7.739000000    -0.855000000
H     3.728000000    -8.493000000    -1.498000000
C     4.076000000    -6.996000000    -0.006000000
H     5.162000000    -7.011000000    -0.040000000
C     3.443000000    -6.091000000     0.843000000
O     4.206000000    -5.309000000     1.648000000
C     4.357000000    -3.911000000     1.572000000
C     4.968000000    -3.206000000     2.615000000
H     5.312000000    -3.785000000     3.468000000
C     5.186000000    -1.828000000     2.588000000
O     5.807000000    -1.171000000     3.605000000
C     5.627000000     0.203000000     3.772000000
C     4.465000000     0.581000000     4.428000000
H     3.699000000    -0.155000000     4.661000000
C     6.646000000     1.110000000     3.540000000
H     7.603000000     0.676000000     3.264000000
C     6.405000000     2.535000000     3.734000000
H     7.162000000     3.273000000     3.481000000
C     5.161000000     2.935000000     4.238000000
H     4.980000000     3.985000000     4.452000000
C     4.172000000     1.945000000     4.595000000
O     2.986000000     2.516000000     5.074000000
C     1.960000000     3.012000000     4.297000000
C     0.683000000     2.985000000     4.897000000
H     0.590000000     2.551000000     5.889000000
C    -0.449000000     3.291000000     4.077000000
O    -1.731000000     3.068000000     4.676000000
C    -2.798000000     3.860000000     4.449000000
C    -4.004000000     3.319000000     3.922000000
H    -4.206000000     2.258000000     3.799000000
C    -2.658000000     5.210000000     4.624000000
H    -1.679000000     5.599000000     4.891000000
C    -3.662000000     6.095000000     4.161000000
H    -3.469000000     7.162000000     4.246000000
C    -4.881000000     5.563000000     3.630000000
H    -5.594000000     6.266000000     3.207000000
C    -4.967000000     4.179000000     3.479000000
O    -6.126000000     3.710000000     2.860000000
C    -6.021000000     2.777000000     1.882000000
C    -6.551000000     1.550000000     2.176000000
H    -7.154000000     1.364000000     3.061000000
C    -6.225000000     0.431000000     1.353000000
O    -6.606000000    -0.844000000     1.543000000
C    -5.662000000    -1.908000000     1.725000000
C    -4.933000000    -1.853000000     2.906000000
H    -5.100000000    -1.066000000     3.637000000
C    -3.993000000    -2.843000000     3.175000000
H    -3.433000000    -2.719000000     4.099000000
C    -3.772000000    -3.889000000     2.248000000
H    -3.042000000    -4.676000000     2.424000000
C    -4.642000000    -3.962000000     1.155000000
C    -5.626000000    -2.975000000     0.886000000
H    -6.405000000    -3.030000000     0.130000000
C    -0.410000000    -2.236000000     1.263000000
H    -1.009000000    -3.139000000     1.348000000
C    -0.558000000    -1.362000000     0.196000000
H    -1.368000000    -1.614000000    -0.484000000
C     0.233000000    -0.226000000     0.036000000
H    -0.005000000     0.358000000    -0.901000000
C     1.149000000     0.109000000     1.035000000
H     1.730000000     1.016000000     0.892000000
C     1.275000000    -0.717000000     2.181000000
H     1.930000000    -0.439000000     3.003000000
C     0.557000000    -1.927000000     2.223000000
C     0.856000000    -2.827000000     3.395000000
O     1.483000000    -2.381000000     4.324000000
O     0.191000000    -3.848000000     3.538000000
O     5.148000000    -5.051000000     6.369000000
H     5.844000000    -5.375000000     6.941000000
H     5.258000000    -5.543000000     5.556000000
O     1.632000000    -6.925000000     7.436000000
H     2.375000000    -6.735000000     6.863000000
H     0.877000000    -6.557000000     6.979000000
O    -1.625000000    -4.425000000     5.547000000
H    -0.874000000    -4.421000000     4.953000000
H    -1.508000000    -3.642000000     6.085000000
O    -1.377000000    -6.468000000     7.554000000
H    -0.993000000    -6.051000000     8.325000000
H    -1.786000000    -5.749000000     7.071000000
O     4.400000000     1.067000000     7.415000000
H     4.571000000     0.127000000     7.463000000
H     3.494000000     1.130000000     7.110000000
O     2.760000000    -3.040000000     6.438000000
H     2.857000000    -3.976000000     6.265000000
H     2.411000000    -2.680000000     5.623000000
O     4.986000000    -1.582000000     7.549000000
H     5.731000000    -1.742000000     6.970000000
H     4.267000000    -2.078000000     7.158000000
O     1.889000000   -10.086000000     3.926000000
H     2.491000000   -10.600000000     3.387000000
H     1.889000000    -9.218000000     3.522000000
O    -2.734000000     0.083000000     4.993000000
H    -1.808000000     0.193000000     5.211000000
H    -2.729000000    -0.289000000     4.111000000
O     4.582000000    -6.518000000     4.155000000
H     3.804000000    -6.056000000     4.469000000
H     4.492000000    -6.516000000     3.202000000
O     0.098000000    -0.037000000     5.622000000
H     0.736000000     0.013000000     6.334000000
H     0.431000000    -0.728000000     5.050000000
O     7.054000000    -2.930000000     5.736000000
H     7.266000000    -3.225000000     4.850000000
H     6.311000000    -3.474000000     5.998000000
O     3.964000000    -4.104000000     9.148000000
H     3.243000000    -3.737000000     8.635000000
H     4.373000000    -4.742000000     8.563000000
O    -0.198000000    -6.800000000     3.777000000
H    -0.992000000    -7.007000000     4.271000000
H    -0.469000000    -6.117000000     3.163000000
O    -4.155000000    -5.776000000     4.890000000
H    -4.903000000    -5.283000000     5.226000000
H    -3.410000000    -5.184000000     4.996000000
O    -1.001000000    -2.375000000     7.064000000
H    -0.728000000    -1.532000000     6.703000000
H    -1.030000000    -2.232000000     8.010000000
O    -2.339000000    -7.982000000     5.085000000
H    -1.997000000    -7.724000000     5.941000000
H    -3.217000000    -7.602000000     5.054000000
O     1.217000000     0.155000000     8.157000000
H     0.925000000     0.652000000     8.922000000
H     1.322000000    -0.740000000     8.479000000
O     2.151000000    -5.687000000     4.763000000
H     1.642000000    -6.335000000     4.276000000
H     1.829000000    -4.843000000     4.447000000
