215
-1465.54512
C     4.819000000    -0.718000000     1.910000000
H     5.134000000     0.314000000     1.779000000
C     4.301000000    -1.463000000     0.841000000
C     4.000000000    -2.756000000     1.099000000
H     3.656000000    -3.424000000     0.314000000
C     4.050000000    -0.846000000    -0.533000000
O     4.869000000     0.372000000    -0.725000000
H     2.967000000    -0.651000000    -0.559000000
O     4.347000000    -1.820000000    -1.616000000
C     3.425000000    -1.904000000    -2.620000000
C     2.399000000    -2.808000000    -2.524000000
H     2.460000000    -3.696000000    -1.900000000
C     1.461000000    -2.868000000    -3.610000000
O     0.392000000    -3.743000000    -3.484000000
C     1.300000000    -1.800000000    -4.488000000
C     0.065000000    -1.652000000    -5.393000000
H     0.302000000    -1.001000000    -6.237000000
C    -1.130000000    -1.018000000    -4.742000000
C    -1.319000000     0.334000000    -4.858000000
H    -0.554000000     0.853000000    -5.429000000
H    -0.296000000    -2.602000000    -5.793000000
C     2.316000000    -0.824000000    -4.547000000
H     2.338000000    -0.027000000    -5.285000000
C     3.368000000    -0.883000000    -3.611000000
C     4.400000000     0.246000000    -3.683000000
H     4.635000000     0.670000000    -4.661000000
H     5.341000000    -0.067000000    -3.226000000
C     3.932000000     1.375000000    -2.791000000
C     3.188000000     2.492000000    -3.234000000
H     2.985000000     2.628000000    -4.294000000
C     4.203000000     1.325000000    -1.424000000
C     3.711000000     2.289000000    -0.586000000
H     3.855000000     2.221000000     0.489000000
C     2.911000000     3.263000000    -1.056000000
O     2.483000000     4.163000000    -0.092000000
C     1.132000000     3.848000000     0.414000000
C     0.871000000     3.849000000     1.914000000
C    -0.418000000     3.741000000     2.387000000
H    -1.238000000     3.935000000     1.699000000
C     1.933000000     3.652000000     2.796000000
H     2.949000000     3.653000000     2.410000000
O     0.249000000     4.814000000    -0.235000000
H     0.922000000     2.799000000     0.155000000
C     2.619000000     3.436000000    -2.407000000
C     1.645000000     4.489000000    -2.906000000
H     1.833000000     4.589000000    -3.977000000
H     1.832000000     5.471000000    -2.467000000
C     0.167000000     4.175000000    -2.609000000
C    -0.573000000     3.604000000    -3.624000000
H    -0.133000000     3.432000000    -4.603000000
C    -0.454000000     4.416000000    -1.376000000
C    -1.743000000     3.900000000    -1.141000000
H    -2.136000000     3.923000000    -0.127000000
C    -2.438000000     3.254000000    -2.124000000
O    -3.745000000     2.835000000    -1.924000000
C    -3.978000000     1.438000000    -1.593000000
C    -5.093000000     1.252000000    -0.503000000
C    -5.396000000     2.322000000     0.253000000
H    -4.882000000     3.260000000     0.063000000
C    -5.706000000     0.067000000    -0.252000000
H    -5.495000000    -0.807000000    -0.863000000
O    -4.326000000     0.678000000    -2.746000000
H    -3.002000000     1.048000000    -1.271000000
C    -1.869000000     3.174000000    -3.379000000
C    -2.619000000     2.517000000    -4.507000000
H    -2.201000000     2.797000000    -5.476000000
H    -3.678000000     2.780000000    -4.542000000
C    -2.432000000     0.988000000    -4.317000000
C    -3.271000000     0.200000000    -3.412000000
C    -3.131000000    -1.128000000    -3.400000000
H    -3.715000000    -1.794000000    -2.770000000
C    -2.046000000    -1.733000000    -4.033000000
O    -1.862000000    -3.041000000    -3.673000000
C    -0.761000000    -3.363000000    -2.764000000
H    -0.592000000    -2.405000000    -2.250000000
C    -1.149000000    -4.445000000    -1.774000000
C    -0.236000000    -5.383000000    -1.292000000
H     0.761000000    -5.503000000    -1.707000000
C    -2.360000000    -4.221000000    -1.108000000
H    -2.960000000    -3.366000000    -1.406000000
C    -2.799000000    -5.127000000    -0.106000000
O    -4.108000000    -5.140000000     0.347000000
C    -1.910000000    -6.125000000     0.247000000
H    -2.260000000    -6.858000000     0.969000000
C    -0.608000000    -6.177000000    -0.220000000
O     0.281000000    -6.969000000     0.379000000
C     1.600000000    -6.732000000     0.626000000
C     1.960000000    -5.807000000     1.622000000
H     1.186000000    -5.391000000     2.263000000
C     2.534000000    -7.364000000    -0.173000000
H     2.245000000    -8.168000000    -0.844000000
C     3.896000000    -7.097000000     0.030000000
H     4.692000000    -7.475000000    -0.607000000
C     4.293000000    -6.031000000     0.937000000
H     5.355000000    -5.799000000     0.924000000
C     3.318000000    -5.519000000     1.752000000
O     3.743000000    -4.652000000     2.740000000
C     4.138000000    -3.356000000     2.374000000
C     4.677000000    -2.570000000     3.357000000
H     4.924000000    -2.980000000     4.333000000
C     5.063000000    -1.286000000     3.141000000
O     5.707000000    -0.599000000     4.071000000
C     5.400000000     0.715000000     4.314000000
C     4.120000000     1.217000000     4.606000000
H     3.253000000     0.562000000     4.622000000
C     6.415000000     1.643000000     4.176000000
H     7.440000000     1.314000000     4.020000000
C     6.182000000     3.018000000     4.244000000
H     6.949000000     3.777000000     4.115000000
C     4.894000000     3.450000000     4.540000000
H     4.717000000     4.523000000     4.520000000
C     3.897000000     2.570000000     4.764000000
O     2.692000000     3.145000000     5.090000000
C     1.679000000     3.422000000     4.181000000
C     0.410000000     3.503000000     4.669000000
H     0.139000000     3.423000000     5.719000000
C    -0.640000000     3.652000000     3.793000000
O    -1.904000000     3.690000000     4.316000000
C    -2.981000000     4.221000000     3.646000000
C    -4.055000000     3.429000000     3.248000000
H    -3.969000000     2.349000000     3.336000000
C    -3.068000000     5.649000000     3.551000000
H    -2.327000000     6.282000000     4.032000000
C    -4.182000000     6.191000000     2.887000000
H    -4.167000000     7.254000000     2.660000000
C    -5.246000000     5.376000000     2.386000000
H    -6.079000000     5.824000000     1.851000000
C    -5.164000000     3.975000000     2.675000000
O    -6.289000000     3.198000000     2.321000000
C    -6.242000000     2.202000000     1.411000000
C    -6.727000000     0.989000000     1.672000000
H    -7.276000000     0.869000000     2.602000000
C    -6.565000000    -0.101000000     0.814000000
O    -6.991000000    -1.373000000     1.134000000
C    -6.093000000    -2.324000000     1.637000000
C    -5.581000000    -2.176000000     2.889000000
H    -5.777000000    -1.373000000     3.596000000
C    -4.561000000    -3.053000000     3.332000000
H    -4.176000000    -3.043000000     4.348000000
C    -4.050000000    -4.089000000     2.481000000
H    -3.301000000    -4.818000000     2.779000000
C    -4.620000000    -4.197000000     1.236000000
C    -5.661000000    -3.375000000     0.885000000
H    -5.968000000    -3.372000000    -0.158000000
C    -0.282000000    -2.189000000     2.151000000
H    -0.878000000    -3.020000000     2.519000000
C    -0.520000000    -1.860000000     0.794000000
H    -1.311000000    -2.367000000     0.248000000
C     0.208000000    -0.796000000     0.247000000
H    -0.122000000    -0.485000000    -0.746000000
C     1.176000000    -0.150000000     0.955000000
H     1.713000000     0.687000000     0.516000000
C     1.469000000    -0.549000000     2.286000000
H     2.270000000    -0.032000000     2.808000000
C     0.762000000    -1.659000000     2.821000000
C     1.039000000    -2.178000000     4.196000000
O     1.879000000    -1.591000000     4.895000000
O     0.453000000    -3.141000000     4.757000000
O     6.447000000    -2.154000000     7.181000000
H     5.640000000    -1.701000000     6.934000000
H     7.007000000    -2.085000000     6.408000000
O    -1.378000000     0.154000000     7.547000000
H    -1.217000000     0.004000000     8.479000000
H    -0.505000000     0.194000000     7.157000000
O     1.603000000    -7.859000000     5.860000000
H     1.284000000    -8.359000000     5.109000000
H     1.716000000    -6.969000000     5.526000000
O     1.932000000    -5.338000000     5.073000000
H     1.538000000    -4.600000000     5.538000000
H     2.454000000    -4.934000000     4.381000000
O    -3.138000000    -6.896000000     4.953000000
H    -2.508000000    -6.379000000     4.452000000
H    -2.764000000    -6.942000000     5.834000000
O    -2.712000000    -3.490000000     8.225000000
H    -2.281000000    -2.717000000     8.588000000
H    -3.402000000    -3.139000000     7.662000000
O     3.865000000    -1.248000000     6.806000000
H     3.418000000    -1.664000000     6.068000000
H     3.285000000    -1.398000000     7.553000000
O     5.057000000     1.428000000     7.612000000
H     4.571000000     1.621000000     8.414000000
H     4.587000000     0.693000000     7.219000000
O    -4.563000000     0.105000000     6.062000000
H    -4.114000000     0.021000000     5.221000000
H    -3.924000000     0.531000000     6.634000000
O    -1.672000000     0.951000000     1.765000000
H    -1.422000000     1.853000000     1.965000000
H    -0.840000000     0.490000000     1.657000000
O     0.978000000     0.312000000     6.412000000
H     1.247000000     1.023000000     5.830000000
H     1.285000000    -0.483000000     5.976000000
O     0.057000000    -5.204000000     9.632000000
H     0.583000000    -4.824000000     8.928000000
H    -0.580000000    -5.759000000     9.183000000
O     1.913000000    -1.539000000     9.023000000
H     2.152000000    -1.859000000     9.893000000
H     1.276000000    -0.844000000     9.191000000
O    -1.087000000    -5.461000000     4.157000000
H    -0.294000000    -5.999000000     4.155000000
H    -0.775000000    -4.576000000     4.343000000
O    -1.290000000    -5.863000000     7.126000000
H    -0.597000000    -5.267000000     6.842000000
H    -2.041000000    -5.294000000     7.296000000
O    -1.806000000    -1.636000000     5.204000000
H    -1.470000000    -1.044000000     5.877000000
H    -1.124000000    -2.302000000     5.110000000
O     0.864000000     1.208000000     8.954000000
H     1.617000000     1.750000000     9.190000000
H     1.087000000     0.850000000     8.095000000
O     1.065000000    -3.629000000     7.605000000
H     1.286000000    -2.906000000     8.192000000
H     1.095000000    -3.245000000     6.729000000
O    -3.433000000    -0.060000000     3.763000000
H    -3.099000000     0.325000000     2.953000000
H    -2.807000000    -0.753000000     3.975000000
