215
-1418.32867
C     4.997000000    -0.349000000     1.810000000
H     5.183000000     0.671000000     1.483000000
C     4.492000000    -1.235000000     0.877000000
C     4.228000000    -2.520000000     1.373000000
H     3.581000000    -3.132000000     0.750000000
C     3.889000000    -0.715000000    -0.423000000
O     4.539000000     0.534000000    -0.875000000
H     2.805000000    -0.579000000    -0.298000000
O     4.221000000    -1.649000000    -1.450000000
C     3.248000000    -1.853000000    -2.443000000
C     2.436000000    -3.039000000    -2.324000000
H     2.477000000    -3.628000000    -1.412000000
C     1.503000000    -3.282000000    -3.328000000
O     0.643000000    -4.290000000    -3.116000000
C     1.339000000    -2.455000000    -4.463000000
C     0.142000000    -2.581000000    -5.357000000
H     0.361000000    -2.066000000    -6.294000000
C    -1.102000000    -1.928000000    -4.712000000
C    -1.288000000    -0.570000000    -5.016000000
H    -0.617000000     0.058000000    -5.596000000
H    -0.174000000    -3.587000000    -5.641000000
C     2.067000000    -1.279000000    -4.481000000
H     1.958000000    -0.530000000    -5.261000000
C     3.145000000    -1.067000000    -3.622000000
C     3.863000000     0.266000000    -3.719000000
H     4.053000000     0.552000000    -4.756000000
H     4.901000000     0.037000000    -3.468000000
C     3.364000000     1.413000000    -2.825000000
C     2.733000000     2.499000000    -3.386000000
H     2.545000000     2.577000000    -4.454000000
C     3.693000000     1.497000000    -1.470000000
C     3.262000000     2.521000000    -0.625000000
H     3.638000000     2.522000000     0.395000000
C     2.415000000     3.415000000    -1.182000000
O     1.860000000     4.395000000    -0.372000000
C     0.439000000     4.271000000    -0.043000000
C     0.249000000     4.340000000     1.479000000
C    -1.032000000     4.601000000     1.978000000
H    -1.854000000     4.952000000     1.360000000
C     1.287000000     3.900000000     2.353000000
H     2.261000000     3.681000000     1.923000000
O    -0.365000000     5.209000000    -0.791000000
H     0.158000000     3.252000000    -0.348000000
C     2.248000000     3.527000000    -2.545000000
C     1.384000000     4.635000000    -3.065000000
H     1.651000000     4.655000000    -4.123000000
H     1.632000000     5.638000000    -2.712000000
C    -0.078000000     4.247000000    -2.965000000
C    -0.538000000     3.248000000    -3.820000000
H     0.104000000     2.990000000    -4.658000000
C    -0.945000000     4.717000000    -1.922000000
C    -2.208000000     4.175000000    -1.781000000
H    -2.663000000     4.355000000    -0.810000000
C    -2.689000000     3.195000000    -2.662000000
O    -3.784000000     2.481000000    -2.250000000
C    -3.612000000     1.226000000    -1.662000000
C    -4.458000000     1.033000000    -0.392000000
C    -4.973000000     2.095000000     0.323000000
H    -4.700000000     3.120000000     0.082000000
C    -4.778000000    -0.242000000     0.060000000
H    -4.394000000    -1.100000000    -0.485000000
O    -4.019000000     0.362000000    -2.720000000
H    -2.563000000     1.009000000    -1.412000000
C    -1.827000000     2.667000000    -3.654000000
C    -2.322000000     1.665000000    -4.642000000
H    -1.941000000     1.895000000    -5.639000000
H    -3.396000000     1.758000000    -4.816000000
C    -2.197000000     0.160000000    -4.324000000
C    -3.033000000    -0.339000000    -3.400000000
C    -2.898000000    -1.717000000    -3.116000000
H    -3.569000000    -2.198000000    -2.409000000
C    -1.949000000    -2.522000000    -3.767000000
O    -1.725000000    -3.785000000    -3.204000000
C    -0.560000000    -3.953000000    -2.390000000
H    -0.341000000    -2.999000000    -1.887000000
C    -0.874000000    -4.932000000    -1.262000000
C     0.142000000    -5.694000000    -0.657000000
H     1.149000000    -5.515000000    -1.025000000
C    -2.160000000    -5.147000000    -0.824000000
H    -3.043000000    -4.635000000    -1.199000000
C    -2.480000000    -5.919000000     0.287000000
O    -3.726000000    -5.829000000     0.896000000
C    -1.469000000    -6.700000000     0.851000000
H    -1.696000000    -7.350000000     1.693000000
C    -0.140000000    -6.521000000     0.453000000
O     0.933000000    -7.205000000     1.062000000
C     2.215000000    -6.728000000     1.324000000
C     2.466000000    -5.663000000     2.206000000
H     1.583000000    -5.205000000     2.645000000
C     3.224000000    -7.341000000     0.604000000
H     2.969000000    -8.015000000    -0.210000000
C     4.570000000    -7.012000000     0.856000000
H     5.384000000    -7.502000000     0.329000000
C     4.841000000    -6.048000000     1.817000000
H     5.877000000    -5.828000000     2.061000000
C     3.828000000    -5.249000000     2.352000000
O     4.159000000    -4.135000000     3.116000000
C     4.606000000    -2.913000000     2.637000000
C     5.149000000    -1.973000000     3.530000000
H     5.389000000    -2.214000000     4.563000000
C     5.226000000    -0.663000000     3.105000000
O     5.661000000     0.316000000     3.977000000
C     5.239000000     1.633000000     3.931000000
C     4.044000000     2.021000000     4.508000000
H     3.487000000     1.394000000     5.200000000
C     6.050000000     2.601000000     3.369000000
H     6.975000000     2.290000000     2.890000000
C     5.574000000     3.880000000     3.171000000
H     6.237000000     4.592000000     2.686000000
C     4.298000000     4.290000000     3.628000000
H     4.045000000     5.346000000     3.578000000
C     3.484000000     3.309000000     4.305000000
O     2.151000000     3.443000000     4.599000000
C     1.108000000     3.928000000     3.734000000
C    -0.184000000     4.226000000     4.195000000
H    -0.319000000     4.021000000     5.254000000
C    -1.278000000     4.513000000     3.333000000
O    -2.431000000     4.849000000     3.983000000
C    -3.605000000     5.057000000     3.299000000
C    -4.392000000     3.972000000     2.916000000
H    -4.038000000     2.947000000     2.998000000
C    -4.191000000     6.327000000     3.230000000
H    -3.577000000     7.196000000     3.453000000
C    -5.407000000     6.481000000     2.797000000
H    -5.855000000     7.461000000     2.653000000
C    -6.088000000     5.415000000     2.264000000
H    -7.097000000     5.461000000     1.862000000
C    -5.677000000     4.144000000     2.512000000
O    -6.425000000     3.054000000     2.022000000
C    -5.903000000     1.904000000     1.371000000
C    -6.273000000     0.623000000     1.689000000
H    -7.036000000     0.523000000     2.456000000
C    -5.687000000    -0.523000000     1.082000000
O    -6.148000000    -1.752000000     1.434000000
C    -5.283000000    -2.655000000     1.922000000
C    -4.554000000    -2.306000000     3.070000000
H    -4.763000000    -1.377000000     3.594000000
C    -3.517000000    -3.133000000     3.468000000
H    -2.860000000    -2.822000000     4.276000000
C    -3.357000000    -4.301000000     2.705000000
H    -2.426000000    -4.792000000     2.975000000
C    -4.047000000    -4.694000000     1.598000000
C    -4.970000000    -3.777000000     1.149000000
H    -5.450000000    -3.964000000     0.191000000
C    -0.618000000    -2.378000000     1.315000000
H    -1.078000000    -3.310000000     1.633000000
C    -0.982000000    -1.762000000     0.139000000
H    -1.814000000    -2.092000000    -0.477000000
C    -0.374000000    -0.569000000    -0.263000000
H    -0.847000000    -0.116000000    -1.159000000
C     0.640000000     0.010000000     0.440000000
H     1.031000000     0.968000000     0.106000000
C     0.971000000    -0.555000000     1.674000000
H     1.521000000     0.087000000     2.358000000
C     0.387000000    -1.775000000     2.090000000
C     0.678000000    -2.372000000     3.457000000
O     1.128000000    -1.667000000     4.337000000
O     0.030000000    -3.317000000     3.860000000
O     5.062000000    -2.145000000     8.409000000
H     4.392000000    -1.800000000     7.819000000
H     5.681000000    -1.423000000     8.517000000
O     0.941000000    -5.834000000     9.027000000
H     0.936000000    -5.726000000     9.978000000
H     0.052000000    -6.116000000     8.813000000
O     2.336000000    -5.539000000     6.456000000
H     3.155000000    -5.099000000     6.685000000
H     1.959000000    -5.796000000     7.297000000
O     6.570000000    -5.784000000     5.084000000
H     6.107000000    -5.052000000     5.491000000
H     7.497000000    -5.591000000     5.229000000
O    -3.692000000    -5.282000000     8.122000000
H    -2.976000000    -5.086000000     7.517000000
H    -4.167000000    -4.455000000     8.206000000
O     2.964000000    -1.334000000     6.454000000
H     2.715000000    -1.420000000     5.534000000
H     2.234000000    -1.721000000     6.937000000
O    -0.527000000    -8.093000000     5.858000000
H    -1.013000000    -8.575000000     5.189000000
H    -0.153000000    -7.346000000     5.391000000
O    -1.899000000     0.208000000     2.805000000
H    -2.278000000    -0.640000000     3.037000000
H    -1.908000000     0.220000000     1.848000000
O     1.360000000     1.874000000     6.906000000
H     1.345000000     1.111000000     7.484000000
H     1.180000000     1.519000000     6.036000000
O    -1.789000000     2.367000000     6.400000000
H    -1.028000000     2.270000000     5.827000000
H    -1.956000000     1.483000000     6.728000000
O    -0.114000000     0.455000000     5.123000000
H    -0.751000000     0.525000000     4.412000000
H     0.497000000    -0.222000000     4.831000000
O    -1.620000000    -2.150000000     8.512000000
H    -1.052000000    -2.378000000     9.248000000
H    -1.253000000    -2.629000000     7.770000000
O     4.705000000    -4.367000000     7.050000000
H     5.218000000    -5.109000000     7.370000000
H     4.960000000    -3.638000000     7.615000000
O     0.765000000    -0.524000000     8.653000000
H     1.514000000    -0.980000000     9.035000000
H     0.179000000    -1.224000000     8.366000000
O     0.264000000    -5.852000000     4.621000000
H     1.189000000    -5.825000000     4.863000000
H     0.038000000    -4.941000000     4.434000000
O    -1.732000000    -4.895000000     6.177000000
H    -1.550000000    -5.529000000     5.483000000
H    -1.046000000    -4.233000000     6.081000000
O    -3.337000000     0.242000000     7.610000000
H    -4.056000000     0.031000000     8.206000000
H    -2.957000000    -0.607000000     7.384000000
O     0.556000000    -3.249000000     6.654000000
H     1.118000000    -4.012000000     6.789000000
H     0.734000000    -2.975000000     5.755000000
O    -4.059000000     0.796000000     4.890000000
H    -3.399000000     0.920000000     4.209000000
H    -3.557000000     0.754000000     5.705000000
