215
-1442.64794
C     5.023000000    -1.405000000     1.480000000
H     5.410000000    -0.393000000     1.391000000
C     4.329000000    -2.017000000     0.492000000
C     3.776000000    -3.228000000     0.680000000
H     3.178000000    -3.635000000    -0.131000000
C     3.914000000    -1.255000000    -0.808000000
O     4.789000000    -0.238000000    -1.156000000
H     2.862000000    -0.957000000    -0.689000000
O     3.880000000    -2.122000000    -1.917000000
C     2.993000000    -1.889000000    -3.013000000
C     1.967000000    -2.816000000    -3.115000000
H     1.857000000    -3.558000000    -2.328000000
C     0.856000000    -2.666000000    -3.927000000
O    -0.181000000    -3.578000000    -3.947000000
C     0.790000000    -1.594000000    -4.810000000
C    -0.438000000    -1.406000000    -5.642000000
H    -0.116000000    -0.692000000    -6.403000000
C    -1.507000000    -0.682000000    -4.801000000
C    -1.566000000     0.712000000    -4.855000000
H    -0.858000000     1.130000000    -5.567000000
H    -0.699000000    -2.336000000    -6.151000000
C     1.907000000    -0.642000000    -4.804000000
H     1.816000000     0.240000000    -5.433000000
C     2.948000000    -0.766000000    -3.845000000
C     4.083000000     0.293000000    -3.840000000
H     4.056000000     0.726000000    -4.842000000
H     5.090000000    -0.118000000    -3.748000000
C     3.774000000     1.264000000    -2.734000000
C     3.164000000     2.493000000    -3.037000000
H     2.836000000     2.691000000    -4.054000000
C     4.198000000     0.968000000    -1.443000000
C     3.846000000     1.838000000    -0.410000000
H     4.159000000     1.493000000     0.572000000
C     3.017000000     2.918000000    -0.651000000
O     2.493000000     3.623000000     0.397000000
C     1.050000000     3.660000000     0.739000000
C     0.901000000     3.617000000     2.251000000
C    -0.208000000     4.240000000     2.888000000
H    -0.979000000     4.751000000     2.317000000
C     1.876000000     2.997000000     3.030000000
H     2.699000000     2.428000000     2.604000000
O     0.414000000     4.704000000     0.122000000
H     0.503000000     2.769000000     0.398000000
C     2.682000000     3.328000000    -1.998000000
C     1.944000000     4.590000000    -2.336000000
H     2.159000000     4.834000000    -3.378000000
H     2.270000000     5.440000000    -1.733000000
C     0.377000000     4.435000000    -2.252000000
C    -0.337000000     3.980000000    -3.382000000
H     0.190000000     3.847000000    -4.323000000
C    -0.248000000     4.529000000    -1.024000000
C    -1.593000000     4.237000000    -0.894000000
H    -2.031000000     4.164000000     0.098000000
C    -2.342000000     3.864000000    -2.009000000
O    -3.625000000     3.484000000    -1.682000000
C    -3.824000000     2.071000000    -1.495000000
C    -4.563000000     1.783000000    -0.190000000
C    -4.679000000     2.754000000     0.800000000
H    -4.168000000     3.708000000     0.708000000
C    -5.088000000     0.471000000     0.077000000
H    -4.994000000    -0.303000000    -0.680000000
O    -4.451000000     1.504000000    -2.710000000
H    -2.842000000     1.586000000    -1.392000000
C    -1.746000000     3.610000000    -3.259000000
C    -2.543000000     3.015000000    -4.433000000
H    -1.921000000     3.167000000    -5.317000000
H    -3.585000000     3.341000000    -4.452000000
C    -2.606000000     1.533000000    -4.266000000
C    -3.616000000     0.845000000    -3.494000000
C    -3.561000000    -0.582000000    -3.429000000
H    -4.403000000    -1.076000000    -2.951000000
C    -2.523000000    -1.284000000    -4.028000000
O    -2.463000000    -2.662000000    -3.795000000
C    -1.330000000    -3.207000000    -3.115000000
H    -0.924000000    -2.411000000    -2.473000000
C    -1.663000000    -4.306000000    -2.134000000
C    -0.755000000    -5.320000000    -1.916000000
H     0.156000000    -5.372000000    -2.508000000
C    -2.892000000    -4.306000000    -1.459000000
H    -3.687000000    -3.606000000    -1.704000000
C    -3.113000000    -5.208000000    -0.434000000
O    -4.286000000    -5.141000000     0.274000000
C    -2.222000000    -6.228000000    -0.204000000
H    -2.413000000    -6.994000000     0.543000000
C    -0.989000000    -6.219000000    -0.844000000
O    -0.078000000    -7.217000000    -0.550000000
C     1.216000000    -6.934000000    -0.371000000
C     1.689000000    -5.930000000     0.524000000
H     1.019000000    -5.191000000     0.957000000
C     2.182000000    -7.897000000    -0.771000000
H     1.921000000    -8.745000000    -1.399000000
C     3.522000000    -7.766000000    -0.429000000
H     4.164000000    -8.535000000    -0.853000000
C     3.990000000    -6.732000000     0.430000000
H     5.016000000    -6.726000000     0.788000000
C     3.024000000    -5.837000000     0.927000000
O     3.398000000    -5.075000000     2.015000000
C     3.877000000    -3.801000000     1.902000000
C     4.531000000    -3.171000000     2.960000000
H     4.649000000    -3.690000000     3.908000000
C     5.095000000    -1.960000000     2.743000000
O     5.716000000    -1.328000000     3.691000000
C     5.432000000     0.013000000     4.114000000
C     4.197000000     0.448000000     4.469000000
H     3.363000000    -0.235000000     4.328000000
C     6.376000000     1.037000000     3.831000000
H     7.416000000     0.802000000     3.620000000
C     6.083000000     2.356000000     4.162000000
H     6.959000000     3.000000000     4.176000000
C     4.861000000     2.818000000     4.605000000
H     4.583000000     3.864000000     4.714000000
C     3.891000000     1.834000000     4.746000000
O     2.620000000     2.053000000     5.128000000
C     1.728000000     2.857000000     4.406000000
C     0.686000000     3.441000000     5.060000000
H     0.560000000     3.404000000     6.139000000
C    -0.289000000     4.158000000     4.300000000
O    -1.331000000     4.711000000     4.947000000
C    -2.508000000     4.976000000     4.368000000
C    -3.290000000     4.050000000     3.730000000
H    -2.975000000     3.010000000     3.690000000
C    -3.025000000     6.279000000     4.447000000
H    -2.415000000     7.010000000     4.970000000
C    -4.249000000     6.686000000     3.872000000
H    -4.681000000     7.671000000     4.026000000
C    -5.086000000     5.689000000     3.367000000
H    -6.114000000     5.986000000     3.174000000
C    -4.611000000     4.350000000     3.236000000
O    -5.504000000     3.317000000     3.041000000
C    -5.351000000     2.481000000     2.008000000
C    -5.857000000     1.189000000     2.217000000
H    -6.447000000     0.981000000     3.106000000
C    -5.687000000     0.247000000     1.273000000
O    -6.304000000    -1.011000000     1.509000000
C    -5.459000000    -2.017000000     1.876000000
C    -4.497000000    -1.950000000     2.926000000
H    -4.551000000    -1.086000000     3.583000000
C    -3.698000000    -3.051000000     3.158000000
H    -3.126000000    -2.961000000     4.078000000
C    -3.617000000    -4.140000000     2.313000000
H    -2.927000000    -4.960000000     2.496000000
C    -4.424000000    -4.076000000     1.179000000
C    -5.376000000    -3.081000000     0.991000000
H    -6.005000000    -3.120000000     0.105000000
C    -0.248000000    -2.517000000     1.205000000
H    -0.967000000    -3.321000000     1.343000000
C    -0.506000000    -1.563000000     0.205000000
H    -1.301000000    -1.739000000    -0.516000000
C     0.177000000    -0.350000000     0.172000000
H    -0.124000000     0.295000000    -0.630000000
C     1.230000000    -0.197000000     1.006000000
H     1.773000000     0.743000000     0.965000000
C     1.588000000    -1.131000000     1.982000000
H     2.397000000    -0.917000000     2.675000000
C     0.781000000    -2.288000000     2.124000000
C     0.908000000    -3.180000000     3.334000000
O     1.537000000    -2.777000000     4.297000000
O     0.527000000    -4.329000000     3.362000000
O     5.842000000    -5.457000000     6.700000000
H     6.674000000    -5.821000000     7.000000000
H     5.805000000    -5.677000000     5.769000000
O    -1.552000000    -0.151000000     8.049000000
H    -1.433000000    -0.102000000     8.998000000
H    -1.602000000     0.762000000     7.767000000
O    -3.370000000    -1.880000000     6.565000000
H    -2.909000000    -1.201000000     7.059000000
H    -3.864000000    -1.399000000     5.902000000
O     2.710000000    -7.614000000     7.029000000
H     2.615000000    -6.768000000     6.592000000
H     3.062000000    -7.399000000     7.893000000
O    -1.353000000    -4.810000000     5.466000000
H    -0.830000000    -4.659000000     4.679000000
H    -1.249000000    -4.009000000     5.980000000
O    -1.707000000    -6.469000000     7.657000000
H    -0.845000000    -6.549000000     8.064000000
H    -1.560000000    -5.913000000     6.892000000
O     2.975000000    -2.277000000     6.381000000
H     3.031000000    -3.202000000     6.620000000
H     2.730000000    -2.282000000     5.456000000
O     4.645000000    -0.436000000     8.150000000
H     3.980000000    -0.372000000     8.836000000
H     4.213000000    -0.913000000     7.441000000
O    -1.257000000     0.796000000     3.033000000
H    -0.775000000     0.212000000     3.619000000
H    -1.235000000     0.355000000     2.184000000
O     6.005000000    -6.111000000     3.998000000
H     6.493000000    -5.985000000     3.184000000
H     5.091000000    -5.968000000     3.754000000
O     0.241000000    -0.367000000     4.935000000
H     0.754000000     0.220000000     5.491000000
H     0.801000000    -1.134000000     4.817000000
O    -0.843000000    -9.197000000     2.328000000
H    -0.231000000    -8.461000000     2.322000000
H    -1.571000000    -8.899000000     2.873000000
O     1.999000000    -1.300000000     8.852000000
H     1.826000000    -1.665000000     7.984000000
H     1.447000000    -0.519000000     8.898000000
O     0.893000000    -7.031000000     3.454000000
H     1.795000000    -7.031000000     3.134000000
H     0.533000000    -6.195000000     3.156000000
O     0.449000000    -8.588000000     5.561000000
H     1.229000000    -8.507000000     6.111000000
H     0.650000000    -8.069000000     4.783000000
O    -0.141000000    -2.526000000     7.091000000
H    -0.704000000    -1.753000000     7.125000000
H     0.476000000    -2.343000000     6.382000000
O    -4.043000000    -6.709000000     5.116000000
H    -3.273000000    -6.516000000     5.650000000
H    -4.651000000    -5.994000000     5.305000000
O     2.101000000    -5.177000000     5.620000000
H     1.469000000    -5.858000000     5.391000000
H     1.832000000    -4.416000000     5.105000000
O    -2.904000000     0.698000000     5.060000000
H    -2.505000000     0.691000000     4.190000000
H    -2.257000000     0.274000000     5.624000000
