215
-1449.12985
C     4.160000000     0.751000000     2.284000000
H     4.154000000     1.776000000     1.922000000
C     4.185000000    -0.299000000     1.272000000
C     4.247000000    -1.659000000     1.640000000
H     4.283000000    -2.453000000     0.898000000
C     3.852000000     0.013000000    -0.158000000
O     4.341000000     1.350000000    -0.382000000
H     2.769000000    -0.097000000    -0.317000000
O     4.549000000    -0.860000000    -1.107000000
C     3.894000000    -1.204000000    -2.241000000
C     3.430000000    -2.514000000    -2.173000000
H     3.675000000    -3.156000000    -1.331000000
C     2.562000000    -2.914000000    -3.188000000
O     1.867000000    -4.078000000    -3.034000000
C     2.122000000    -1.978000000    -4.166000000
C     1.141000000    -2.380000000    -5.217000000
H     1.350000000    -1.884000000    -6.167000000
C    -0.297000000    -2.047000000    -4.694000000
C    -0.980000000    -0.840000000    -5.072000000
H    -0.593000000    -0.167000000    -5.833000000
H     1.121000000    -3.472000000    -5.219000000
C     2.618000000    -0.699000000    -4.239000000
H     2.305000000    -0.096000000    -5.088000000
C     3.536000000    -0.285000000    -3.225000000
C     4.216000000     1.032000000    -3.327000000
H     4.351000000     1.323000000    -4.371000000
H     5.189000000     0.913000000    -2.847000000
C     3.422000000     2.059000000    -2.600000000
C     2.576000000     2.886000000    -3.352000000
H     2.494000000     2.796000000    -4.432000000
C     3.599000000     2.174000000    -1.202000000
C     2.799000000     3.193000000    -0.540000000
H     2.746000000     3.236000000     0.545000000
C     1.909000000     3.945000000    -1.308000000
O     1.033000000     4.751000000    -0.566000000
C    -0.259000000     4.271000000    -0.284000000
C    -0.576000000     4.570000000     1.220000000
C    -1.923000000     4.543000000     1.721000000
H    -2.692000000     4.223000000     1.023000000
C     0.389000000     4.685000000     2.225000000
H     1.422000000     4.506000000     1.939000000
O    -1.200000000     4.850000000    -1.144000000
H    -0.368000000     3.189000000    -0.449000000
C     1.712000000     3.743000000    -2.614000000
C     0.554000000     4.449000000    -3.445000000
H     0.767000000     4.426000000    -4.516000000
H     0.491000000     5.489000000    -3.115000000
C    -0.777000000     3.722000000    -3.224000000
C    -1.085000000     2.708000000    -4.147000000
H    -0.401000000     2.599000000    -4.985000000
C    -1.583000000     3.953000000    -2.126000000
C    -2.737000000     3.258000000    -1.978000000
H    -3.372000000     3.400000000    -1.108000000
C    -2.996000000     2.218000000    -2.854000000
O    -4.075000000     1.457000000    -2.550000000
C    -3.841000000     0.217000000    -1.857000000
C    -4.795000000    -0.082000000    -0.691000000
C    -5.544000000     0.938000000    -0.061000000
H    -5.441000000     1.959000000    -0.418000000
C    -4.874000000    -1.371000000    -0.287000000
H    -4.298000000    -2.126000000    -0.816000000
O    -3.965000000    -0.867000000    -2.836000000
H    -2.812000000     0.290000000    -1.478000000
C    -2.284000000     2.018000000    -4.018000000
C    -2.717000000     0.851000000    -4.960000000
H    -2.263000000     1.114000000    -5.918000000
H    -3.800000000     0.925000000    -5.075000000
C    -2.208000000    -0.477000000    -4.513000000
C    -2.821000000    -1.284000000    -3.533000000
C    -2.242000000    -2.491000000    -3.225000000
H    -2.654000000    -3.118000000    -2.439000000
C    -1.035000000    -2.845000000    -3.808000000
O    -0.473000000    -4.000000000    -3.298000000
C     0.635000000    -3.969000000    -2.319000000
H     0.557000000    -2.996000000    -1.811000000
C     0.372000000    -5.001000000    -1.241000000
C     1.475000000    -5.560000000    -0.577000000
H     2.462000000    -5.422000000    -1.012000000
C    -0.863000000    -5.269000000    -0.801000000
H    -1.763000000    -4.851000000    -1.243000000
C    -1.078000000    -6.113000000     0.283000000
O    -2.308000000    -6.224000000     0.837000000
C     0.035000000    -6.687000000     0.890000000
H    -0.088000000    -7.366000000     1.730000000
C     1.304000000    -6.536000000     0.393000000
O     2.417000000    -7.147000000     1.065000000
C     3.524000000    -6.480000000     1.580000000
C     3.348000000    -5.168000000     2.161000000
H     2.359000000    -4.720000000     2.216000000
C     4.785000000    -6.953000000     1.484000000
H     4.959000000    -7.996000000     1.229000000
C     5.861000000    -6.229000000     2.011000000
H     6.864000000    -6.648000000     2.007000000
C     5.673000000    -4.969000000     2.628000000
H     6.464000000    -4.492000000     3.200000000
C     4.426000000    -4.394000000     2.575000000
O     4.223000000    -3.289000000     3.396000000
C     4.320000000    -1.970000000     2.993000000
C     4.372000000    -0.962000000     3.973000000
H     4.492000000    -1.242000000     5.017000000
C     4.230000000     0.394000000     3.618000000
O     4.217000000     1.354000000     4.622000000
C     3.830000000     2.682000000     4.456000000
C     2.471000000     3.101000000     4.464000000
H     1.623000000     2.507000000     4.794000000
C     4.879000000     3.562000000     4.202000000
H     5.898000000     3.205000000     4.074000000
C     4.615000000     4.878000000     3.996000000
H     5.460000000     5.481000000     3.675000000
C     3.350000000     5.336000000     4.061000000
H     3.097000000     6.393000000     4.088000000
C     2.306000000     4.445000000     4.404000000
O     1.114000000     4.996000000     4.532000000
C     0.119000000     4.895000000     3.568000000
C    -1.229000000     5.047000000     3.980000000
H    -1.438000000     5.474000000     4.957000000
C    -2.229000000     4.859000000     3.059000000
O    -3.531000000     4.898000000     3.411000000
C    -4.591000000     4.612000000     2.599000000
C    -5.000000000     3.289000000     2.588000000
H    -4.338000000     2.553000000     3.038000000
C    -5.432000000     5.583000000     2.073000000
H    -5.229000000     6.651000000     2.052000000
C    -6.651000000     5.259000000     1.451000000
H    -7.333000000     5.972000000     0.994000000
C    -6.928000000     3.892000000     1.342000000
H    -7.805000000     3.504000000     0.829000000
C    -6.165000000     2.929000000     2.009000000
O    -6.667000000     1.599000000     1.968000000
C    -6.157000000     0.621000000     1.136000000
C    -6.296000000    -0.713000000     1.493000000
H    -6.833000000    -0.998000000     2.394000000
C    -5.717000000    -1.721000000     0.699000000
O    -5.721000000    -2.998000000     1.229000000
C    -4.596000000    -3.552000000     1.804000000
C    -3.981000000    -3.091000000     2.987000000
H    -4.481000000    -2.222000000     3.406000000
C    -2.714000000    -3.605000000     3.395000000
H    -2.174000000    -3.162000000     4.228000000
C    -2.133000000    -4.575000000     2.563000000
H    -1.171000000    -4.984000000     2.863000000
C    -2.811000000    -5.116000000     1.482000000
C    -3.981000000    -4.599000000     1.058000000
H    -4.496000000    -4.990000000     0.185000000
C     0.085000000    -2.143000000     1.551000000
H    -0.098000000    -3.215000000     1.548000000
C    -0.294000000    -1.335000000     0.499000000
H    -0.781000000    -1.790000000    -0.360000000
C    -0.089000000     0.018000000     0.506000000
H    -0.335000000     0.620000000    -0.369000000
C     0.376000000     0.543000000     1.704000000
H     0.582000000     1.601000000     1.847000000
C     0.687000000    -0.220000000     2.781000000
H     0.919000000     0.345000000     3.680000000
C     0.542000000    -1.596000000     2.735000000
C     0.773000000    -2.420000000     3.983000000
O     1.189000000    -1.979000000     4.982000000
O     0.562000000    -3.639000000     4.011000000
O    -3.020000000    -0.132000000     8.210000000
H    -2.531000000    -0.245000000     9.025000000
H    -2.348000000     0.013000000     7.545000000
O     1.558000000    -6.288000000     7.043000000
H     1.936000000    -6.606000000     6.223000000
H     1.539000000    -5.336000000     6.944000000
O     4.365000000    -1.457000000     7.300000000
H     4.736000000    -1.033000000     8.074000000
H     5.004000000    -2.130000000     7.067000000
O     4.514000000    -5.877000000     6.833000000
H     3.847000000    -5.262000000     6.529000000
H     4.560000000    -6.540000000     6.143000000
O     0.791000000    -6.489000000     4.075000000
H    -0.111000000    -6.615000000     4.372000000
H     0.854000000    -5.551000000     3.894000000
O     5.956000000    -3.225000000     6.460000000
H     6.040000000    -3.548000000     7.357000000
H     5.199000000    -3.694000000     6.108000000
O    -3.028000000     0.027000000     2.002000000
H    -2.286000000    -0.200000000     1.441000000
H    -3.555000000    -0.771000000     2.036000000
O    -0.775000000    -0.128000000     6.169000000
H    -0.243000000    -0.729000000     5.647000000
H    -1.385000000     0.260000000     5.541000000
O    -2.458000000    -6.430000000     7.829000000
H    -2.006000000    -7.260000000     7.676000000
H    -1.763000000    -5.823000000     8.083000000
O    -0.635000000    -4.324000000     6.273000000
H    -1.053000000    -5.058000000     5.821000000
H    -0.119000000    -3.888000000     5.595000000
O    -1.318000000    -3.469000000     8.764000000
H    -0.467000000    -3.080000000     8.967000000
H    -1.266000000    -3.688000000     7.834000000
O     1.023000000    -2.216000000     8.851000000
H     1.427000000    -1.791000000     8.095000000
H     0.963000000    -1.525000000     9.511000000
O    -0.163000000     1.646000000     8.450000000
H    -0.189000000     0.970000000     7.773000000
H    -0.433000000     2.446000000     8.000000000
O     2.865000000    -4.021000000     5.726000000
H     2.040000000    -3.537000000     5.697000000
H     3.328000000    -3.753000000     4.932000000
O     2.432000000    -8.334000000     4.865000000
H     2.545000000    -8.873000000     4.082000000
H     1.768000000    -7.690000000     4.618000000
O    -2.651000000     0.987000000     4.551000000
H    -3.531000000     1.350000000     4.652000000
H    -2.553000000     0.854000000     3.609000000
O     2.789000000    -5.015000000     9.239000000
H     2.876000000    -5.617000000     8.499000000
H     2.632000000    -4.161000000     8.836000000
O    -1.885000000    -6.793000000     4.843000000
H    -2.765000000    -6.694000000     4.479000000
H    -2.015000000    -7.294000000     5.649000000
O     2.037000000    -0.197000000     6.714000000
H     2.922000000    -0.558000000     6.769000000
H     1.588000000    -0.762000000     6.085000000
