215
-1462.70654
C     5.090000000     0.039000000     2.002000000
H     5.794000000     0.823000000     1.733000000
C     4.417000000    -0.740000000     1.072000000
C     3.644000000    -1.877000000     1.444000000
H     3.006000000    -2.359000000     0.707000000
C     4.331000000    -0.396000000    -0.409000000
O     5.155000000     0.757000000    -0.741000000
H     3.258000000    -0.158000000    -0.455000000
O     4.689000000    -1.429000000    -1.390000000
C     3.758000000    -1.652000000    -2.449000000
C     2.924000000    -2.811000000    -2.381000000
H     3.037000000    -3.450000000    -1.509000000
C     1.897000000    -3.020000000    -3.273000000
O     1.071000000    -4.079000000    -3.028000000
C     1.734000000    -2.065000000    -4.296000000
C     0.663000000    -2.289000000    -5.247000000
H     0.966000000    -1.884000000    -6.215000000
C    -0.519000000    -1.515000000    -4.798000000
C    -0.778000000    -0.202000000    -5.146000000
H     0.008000000     0.319000000    -5.688000000
H     0.376000000    -3.322000000    -5.456000000
C     2.557000000    -0.966000000    -4.418000000
H     2.569000000    -0.296000000    -5.275000000
C     3.559000000    -0.721000000    -3.450000000
C     4.515000000     0.463000000    -3.569000000
H     4.625000000     0.891000000    -4.567000000
H     5.526000000     0.132000000    -3.322000000
C     4.015000000     1.641000000    -2.658000000
C     3.083000000     2.474000000    -3.171000000
H     2.759000000     2.325000000    -4.198000000
C     4.421000000     1.776000000    -1.356000000
C     3.721000000     2.641000000    -0.527000000
H     3.905000000     2.592000000     0.543000000
C     2.761000000     3.513000000    -1.049000000
O     2.101000000     4.299000000    -0.192000000
C     0.737000000     3.947000000     0.125000000
C     0.429000000     3.907000000     1.645000000
C    -0.828000000     3.585000000     2.164000000
H    -1.677000000     3.502000000     1.491000000
C     1.503000000     3.830000000     2.546000000
H     2.521000000     4.088000000     2.267000000
O    -0.047000000     4.907000000    -0.680000000
H     0.621000000     2.885000000    -0.137000000
C     2.475000000     3.511000000    -2.414000000
C     1.511000000     4.523000000    -2.969000000
H     1.700000000     4.757000000    -4.019000000
H     1.716000000     5.519000000    -2.572000000
C     0.106000000     4.052000000    -2.876000000
C    -0.405000000     3.313000000    -3.901000000
H     0.182000000     2.987000000    -4.755000000
C    -0.695000000     4.310000000    -1.790000000
C    -1.943000000     3.758000000    -1.657000000
H    -2.594000000     3.838000000    -0.790000000
C    -2.451000000     3.058000000    -2.745000000
O    -3.728000000     2.453000000    -2.501000000
C    -3.830000000     1.090000000    -2.121000000
C    -4.967000000     0.949000000    -1.168000000
C    -5.392000000     1.967000000    -0.273000000
H    -5.014000000     2.965000000    -0.480000000
C    -5.517000000    -0.338000000    -0.943000000
H    -4.991000000    -1.184000000    -1.377000000
O    -4.043000000     0.265000000    -3.283000000
H    -2.957000000     0.821000000    -1.509000000
C    -1.692000000     2.790000000    -3.914000000
C    -2.184000000     1.883000000    -5.017000000
H    -1.657000000     2.127000000    -5.942000000
H    -3.243000000     2.074000000    -5.201000000
C    -1.969000000     0.439000000    -4.747000000
C    -2.857000000    -0.258000000    -3.875000000
C    -2.554000000    -1.524000000    -3.402000000
H    -3.197000000    -2.011000000    -2.673000000
C    -1.428000000    -2.158000000    -3.881000000
O    -1.189000000    -3.465000000    -3.500000000
C    -0.262000000    -3.745000000    -2.449000000
H    -0.130000000    -2.837000000    -1.842000000
C    -0.786000000    -4.808000000    -1.460000000
C     0.095000000    -5.346000000    -0.506000000
H     1.155000000    -5.127000000    -0.605000000
C    -2.113000000    -5.003000000    -1.302000000
H    -2.815000000    -4.526000000    -1.981000000
C    -2.603000000    -5.740000000    -0.239000000
O    -4.014000000    -5.752000000     0.008000000
C    -1.702000000    -6.388000000     0.635000000
H    -2.083000000    -7.084000000     1.377000000
C    -0.335000000    -6.199000000     0.485000000
O     0.585000000    -6.942000000     1.200000000
C     1.760000000    -6.355000000     1.713000000
C     1.695000000    -5.071000000     2.290000000
H     0.760000000    -4.583000000     2.554000000
C     2.983000000    -6.946000000     1.409000000
H     3.068000000    -7.988000000     1.112000000
C     4.168000000    -6.318000000     1.880000000
H     5.127000000    -6.830000000     1.855000000
C     4.174000000    -5.097000000     2.531000000
H     5.153000000    -4.686000000     2.765000000
C     2.919000000    -4.429000000     2.695000000
O     2.836000000    -3.238000000     3.283000000
C     3.516000000    -2.189000000     2.794000000
C     4.176000000    -1.442000000     3.727000000
H     4.160000000    -1.706000000     4.781000000
C     5.009000000    -0.386000000     3.342000000
O     5.753000000     0.420000000     4.222000000
C     5.337000000     1.688000000     4.534000000
C     3.971000000     1.937000000     4.666000000
H     3.253000000     1.122000000     4.610000000
C     6.281000000     2.708000000     4.662000000
H     7.341000000     2.470000000     4.624000000
C     5.800000000     3.994000000     4.890000000
H     6.464000000     4.847000000     5.007000000
C     4.451000000     4.279000000     4.833000000
H     4.063000000     5.252000000     5.122000000
C     3.544000000     3.248000000     4.744000000
O     2.172000000     3.513000000     4.881000000
C     1.275000000     3.609000000     3.902000000
C    -0.002000000     3.524000000     4.402000000
H    -0.007000000     3.380000000     5.479000000
C    -1.097000000     3.448000000     3.536000000
O    -2.392000000     3.279000000     3.968000000
C    -3.409000000     3.841000000     3.311000000
C    -4.463000000     3.016000000     2.856000000
H    -4.439000000     1.972000000     3.157000000
C    -3.577000000     5.216000000     3.155000000
H    -3.009000000     5.941000000     3.733000000
C    -4.627000000     5.758000000     2.465000000
H    -4.769000000     6.823000000     2.302000000
C    -5.568000000     4.892000000     1.829000000
H    -6.414000000     5.314000000     1.292000000
C    -5.563000000     3.528000000     2.219000000
O    -6.524000000     2.642000000     1.688000000
C    -6.275000000     1.731000000     0.714000000
C    -6.821000000     0.454000000     0.819000000
H    -7.621000000     0.357000000     1.549000000
C    -6.417000000    -0.598000000     0.013000000
O    -6.786000000    -1.910000000     0.297000000
C    -5.886000000    -2.776000000     0.907000000
C    -5.734000000    -2.735000000     2.304000000
H    -6.356000000    -2.053000000     2.877000000
C    -5.073000000    -3.765000000     2.944000000
H    -4.910000000    -3.779000000     4.018000000
C    -4.426000000    -4.726000000     2.188000000
H    -3.973000000    -5.498000000     2.805000000
C    -4.514000000    -4.696000000     0.810000000
C    -5.293000000    -3.748000000     0.171000000
H    -5.406000000    -3.758000000    -0.910000000
C    -0.989000000    -1.419000000     1.288000000
H    -1.892000000    -2.024000000     1.301000000
C    -0.672000000    -0.712000000     0.115000000
H    -1.258000000    -0.925000000    -0.775000000
C     0.444000000     0.136000000     0.031000000
H     0.743000000     0.644000000    -0.909000000
C     1.128000000     0.396000000     1.194000000
H     2.017000000     1.016000000     1.111000000
C     0.833000000    -0.232000000     2.419000000
H     1.417000000    -0.067000000     3.321000000
C    -0.290000000    -1.078000000     2.462000000
C    -0.836000000    -1.647000000     3.762000000
O    -0.321000000    -1.263000000     4.781000000
O    -1.862000000    -2.221000000     3.827000000
O    -0.921000000    -5.119000000     9.114000000
H    -1.349000000    -4.541000000     9.745000000
H    -0.831000000    -4.585000000     8.324000000
O     2.416000000    -3.055000000     7.453000000
H     3.195000000    -3.111000000     6.899000000
H     1.749000000    -3.551000000     6.978000000
O    -1.554000000    -4.833000000     4.517000000
H    -2.280000000    -5.232000000     4.995000000
H    -1.859000000    -3.950000000     4.310000000
O    -6.282000000    -3.282000000     6.448000000
H    -7.078000000    -3.241000000     6.980000000
H    -6.195000000    -2.403000000     6.080000000
O     2.096000000    -6.265000000     5.663000000
H     1.750000000    -5.399000000     5.446000000
H     2.975000000    -6.273000000     5.284000000
O     1.638000000     2.130000000     8.363000000
H     0.867000000     2.693000000     8.435000000
H     1.513000000     1.657000000     7.540000000
O    -3.819000000    -0.585000000     3.262000000
H    -3.745000000    -0.266000000     2.363000000
H    -3.176000000    -1.291000000     3.320000000
O    -2.264000000     0.430000000     5.597000000
H    -1.447000000     0.004000000     5.337000000
H    -2.816000000     0.384000000     4.816000000
O    -1.442000000    -2.604000000     7.032000000
H    -2.258000000    -2.628000000     6.533000000
H    -0.919000000    -1.926000000     6.604000000
O    -3.085000000    -0.232000000     8.686000000
H    -3.989000000    -0.533000000     8.780000000
H    -2.918000000    -0.264000000     7.744000000
O     0.889000000    -1.113000000     8.515000000
H     1.394000000    -1.806000000     8.090000000
H     1.534000000    -0.627000000     9.029000000
O     0.727000000    -3.865000000     5.545000000
H    -0.020000000    -4.395000000     5.267000000
H     0.465000000    -2.964000000     5.356000000
O    -0.213000000    -7.489000000     5.060000000
H     0.587000000    -6.982000000     5.199000000
H    -0.827000000    -6.867000000     4.671000000
O     1.548000000    -6.328000000     8.553000000
H     1.640000000    -6.387000000     7.603000000
H     0.646000000    -6.036000000     8.688000000
O    -5.685000000    -0.695000000     5.185000000
H    -6.004000000     0.207000000     5.210000000
H    -5.066000000    -0.710000000     4.454000000
O    -1.565000000    -2.530000000     9.906000000
H    -2.294000000    -1.940000000     9.713000000
H    -0.959000000    -2.409000000     9.175000000
O    -4.323000000    -5.564000000     5.992000000
H    -4.470000000    -4.658000000     6.262000000
H    -5.164000000    -5.847000000     5.632000000
O     0.534000000     0.671000000     6.277000000
H     0.291000000     0.068000000     6.980000000
H     0.507000000     0.137000000     5.483000000
O    -2.455000000     2.784000000     7.083000000
H    -3.044000000     3.329000000     6.562000000
H    -2.258000000     2.037000000     6.518000000
