215
-1461.48210
C     5.624000000    -0.099000000     1.527000000
H     5.681000000     0.907000000     1.119000000
C     5.125000000    -1.125000000     0.795000000
C     4.920000000    -2.394000000     1.308000000
H     4.380000000    -3.093000000     0.674000000
C     4.455000000    -0.807000000    -0.600000000
O     5.099000000     0.335000000    -1.302000000
H     3.381000000    -0.796000000    -0.366000000
O     4.599000000    -1.885000000    -1.466000000
C     3.547000000    -2.110000000    -2.368000000
C     2.523000000    -2.973000000    -1.942000000
H     2.560000000    -3.462000000    -0.972000000
C     1.397000000    -3.220000000    -2.709000000
O     0.444000000    -4.046000000    -2.146000000
C     1.257000000    -2.491000000    -3.865000000
C    -0.018000000    -2.533000000    -4.685000000
H     0.242000000    -2.384000000    -5.735000000
C    -1.284000000    -1.841000000    -4.150000000
C    -1.627000000    -0.581000000    -4.582000000
H    -1.016000000    -0.125000000    -5.355000000
H    -0.319000000    -3.581000000    -4.643000000
C     2.211000000    -1.617000000    -4.266000000
H     1.901000000    -0.987000000    -5.096000000
C     3.341000000    -1.318000000    -3.499000000
C     4.218000000    -0.225000000    -3.953000000
H     4.053000000    -0.180000000    -5.031000000
H     5.273000000    -0.473000000    -3.825000000
C     3.823000000     1.066000000    -3.223000000
C     2.862000000     1.969000000    -3.744000000
H     2.513000000     1.844000000    -4.765000000
C     4.281000000     1.261000000    -1.928000000
C     3.746000000     2.286000000    -1.148000000
H     3.995000000     2.405000000    -0.097000000
C     2.827000000     3.186000000    -1.720000000
O     2.317000000     4.155000000    -0.833000000
C     1.119000000     3.755000000    -0.337000000
C     1.060000000     3.959000000     1.227000000
C    -0.158000000     4.258000000     1.799000000
H    -0.992000000     4.426000000     1.123000000
C     2.134000000     3.807000000     2.149000000
H     3.061000000     3.451000000     1.707000000
O     0.146000000     4.582000000    -1.023000000
H     0.875000000     2.714000000    -0.596000000
C     2.371000000     3.040000000    -2.988000000
C     1.269000000     3.952000000    -3.551000000
H     1.473000000     3.949000000    -4.623000000
H     1.479000000     4.978000000    -3.243000000
C    -0.176000000     3.591000000    -3.222000000
C    -0.921000000     2.793000000    -4.059000000
H    -0.526000000     2.477000000    -5.020000000
C    -0.727000000     3.998000000    -1.967000000
C    -2.035000000     3.560000000    -1.568000000
H    -2.388000000     3.798000000    -0.568000000
C    -2.778000000     2.854000000    -2.495000000
O    -3.987000000     2.404000000    -2.101000000
C    -3.996000000     1.105000000    -1.501000000
C    -5.006000000     1.143000000    -0.353000000
C    -4.992000000     2.203000000     0.574000000
H    -4.388000000     3.089000000     0.395000000
C    -5.675000000    -0.052000000    -0.073000000
H    -5.648000000    -0.912000000    -0.736000000
O    -4.435000000     0.241000000    -2.538000000
H    -3.057000000     0.688000000    -1.110000000
C    -2.247000000     2.493000000    -3.750000000
C    -3.024000000     1.548000000    -4.624000000
H    -2.654000000     1.655000000    -5.645000000
H    -4.100000000     1.737000000    -4.611000000
C    -2.737000000     0.070000000    -4.119000000
C    -3.548000000    -0.574000000    -3.213000000
C    -3.270000000    -1.895000000    -2.738000000
H    -3.752000000    -2.349000000    -1.876000000
C    -2.155000000    -2.525000000    -3.265000000
O    -1.835000000    -3.669000000    -2.508000000
C    -0.763000000    -3.429000000    -1.555000000
H    -0.653000000    -2.354000000    -1.351000000
C    -1.076000000    -3.989000000    -0.155000000
C    -0.064000000    -4.284000000     0.755000000
H     0.985000000    -4.214000000     0.477000000
C    -2.429000000    -4.198000000     0.236000000
H    -3.235000000    -3.829000000    -0.393000000
C    -2.706000000    -4.799000000     1.481000000
O    -4.007000000    -5.020000000     1.896000000
C    -1.691000000    -5.033000000     2.321000000
H    -1.919000000    -5.502000000     3.275000000
C    -0.416000000    -4.825000000     1.967000000
O     0.595000000    -5.141000000     2.852000000
C     1.934000000    -5.420000000     2.578000000
C     2.916000000    -4.512000000     2.949000000
H     2.699000000    -3.575000000     3.456000000
C     2.240000000    -6.693000000     2.170000000
H     1.393000000    -7.343000000     1.967000000
C     3.575000000    -7.101000000     2.090000000
H     3.812000000    -8.148000000     1.920000000
C     4.590000000    -6.190000000     2.364000000
H     5.599000000    -6.594000000     2.348000000
C     4.280000000    -4.872000000     2.773000000
O     5.280000000    -3.990000000     3.130000000
C     5.384000000    -2.732000000     2.596000000
C     5.983000000    -1.710000000     3.326000000
H     6.256000000    -1.915000000     4.358000000
C     6.034000000    -0.396000000     2.834000000
O     6.601000000     0.593000000     3.572000000
C     6.103000000     1.919000000     3.591000000
C     4.822000000     2.081000000     4.120000000
H     4.225000000     1.307000000     4.597000000
C     6.766000000     3.008000000     3.095000000
H     7.783000000     2.900000000     2.725000000
C     6.153000000     4.233000000     3.134000000
H     6.679000000     5.122000000     2.794000000
C     4.863000000     4.395000000     3.583000000
H     4.325000000     5.339000000     3.556000000
C     4.196000000     3.272000000     4.055000000
O     2.899000000     3.377000000     4.403000000
C     1.887000000     3.794000000     3.547000000
C     0.668000000     4.205000000     4.053000000
H     0.426000000     4.171000000     5.112000000
C    -0.349000000     4.341000000     3.134000000
O    -1.519000000     4.751000000     3.725000000
C    -2.722000000     4.983000000     3.087000000
C    -3.707000000     4.038000000     3.156000000
H    -3.566000000     3.075000000     3.640000000
C    -2.970000000     6.090000000     2.291000000
H    -2.345000000     6.978000000     2.248000000
C    -4.186000000     6.225000000     1.602000000
H    -4.421000000     7.123000000     1.035000000
C    -5.186000000     5.319000000     1.728000000
H    -6.143000000     5.374000000     1.216000000
C    -4.965000000     4.191000000     2.570000000
O    -5.830000000     3.127000000     2.588000000
C    -5.834000000     2.103000000     1.706000000
C    -6.553000000     0.870000000     1.981000000
H    -7.042000000     0.718000000     2.940000000
C    -6.412000000    -0.181000000     1.110000000
O    -7.152000000    -1.353000000     1.290000000
C    -6.660000000    -2.610000000     0.950000000
C    -7.439000000    -3.406000000     0.132000000
H    -8.356000000    -3.008000000    -0.296000000
C    -7.066000000    -4.769000000    -0.039000000
H    -7.590000000    -5.463000000    -0.691000000
C    -5.892000000    -5.284000000     0.485000000
H    -5.531000000    -6.283000000     0.258000000
C    -5.112000000    -4.486000000     1.313000000
C    -5.573000000    -3.181000000     1.574000000
H    -5.029000000    -2.669000000     2.363000000
C    -0.899000000    -0.954000000     2.377000000
H    -1.843000000    -1.401000000     2.681000000
C    -0.697000000    -0.416000000     1.122000000
H    -1.606000000    -0.280000000     0.542000000
C     0.494000000     0.183000000     0.702000000
H     0.513000000     0.524000000    -0.293000000
C     1.580000000     0.041000000     1.579000000
H     2.480000000     0.620000000     1.387000000
C     1.431000000    -0.692000000     2.753000000
H     2.250000000    -0.782000000     3.462000000
C     0.206000000    -1.214000000     3.148000000
C     0.100000000    -1.958000000     4.432000000
O     1.003000000    -1.923000000     5.276000000
O    -0.992000000    -2.401000000     4.801000000
O    -1.328000000    -1.915000000     7.468000000
H    -1.349000000    -1.982000000     6.513000000
H    -0.398000000    -1.963000000     7.690000000
O     0.339000000    -1.182000000    10.199000000
H     0.754000000    -1.775000000     9.571000000
H     0.447000000    -1.616000000    11.045000000
O     1.232000000    -2.568000000     7.847000000
H     1.475000000    -3.493000000     7.898000000
H     1.089000000    -2.410000000     6.914000000
O    -5.833000000    -1.260000000     5.924000000
H    -6.012000000    -2.117000000     5.536000000
H    -5.090000000    -1.411000000     6.508000000
O    -1.523000000     2.729000000     8.072000000
H    -2.230000000     2.134000000     8.322000000
H    -0.815000000     2.153000000     7.784000000
O     3.172000000     0.047000000     9.492000000
H     2.310000000    -0.014000000     9.081000000
H     3.775000000    -0.303000000     8.836000000
O    -3.919000000    -1.309000000     7.719000000
H    -3.586000000    -0.452000000     7.984000000
H    -3.136000000    -1.809000000     7.488000000
O     4.763000000    -0.934000000     7.457000000
H     4.807000000    -1.884000000     7.341000000
H     5.603000000    -0.614000000     7.127000000
O     2.441000000     0.356000000     6.448000000
H     3.233000000    -0.041000000     6.810000000
H     1.920000000    -0.385000000     6.138000000
O     3.782000000    -3.023000000     6.123000000
H     3.146000000    -3.655000000     6.458000000
H     3.256000000    -2.389000000     5.636000000
O    -0.423000000    -6.174000000     7.972000000
H     0.070000000    -6.993000000     7.929000000
H    -0.474000000    -5.877000000     7.063000000
O    -0.337000000    -4.997000000     5.605000000
H    -0.163000000    -5.361000000     4.737000000
H    -0.474000000    -4.062000000     5.451000000
O    -2.528000000    -4.039000000     9.139000000
H    -2.016000000    -4.678000000     8.642000000
H    -2.207000000    -3.189000000     8.837000000
O     1.880000000     2.701000000     8.003000000
H     1.743000000     1.817000000     7.662000000
H     1.267000000     3.245000000     7.507000000
O     2.037000000    -5.005000000     6.874000000
H     1.146000000    -5.212000000     6.591000000
H     2.520000000    -5.824000000     6.762000000
O    -3.509000000    -2.938000000     4.633000000
H    -3.527000000    -3.249000000     3.727000000
H    -2.584000000    -2.767000000     4.809000000
O     3.899000000    -6.820000000     5.436000000
H     4.019000000    -6.256000000     4.673000000
H     3.001000000    -7.142000000     5.358000000
O     1.121000000    -4.957000000     9.904000000
H     0.440000000    -4.943000000    10.576000000
H     0.713000000    -5.395000000     9.157000000
O    -0.131000000     0.639000000     7.311000000
H     0.433000000     0.333000000     6.601000000
H    -0.659000000    -0.125000000     7.544000000
