215
-1436.42670
C     4.730000000     0.482000000     1.774000000
H     4.365000000     1.422000000     1.369000000
C     4.688000000    -0.619000000     0.941000000
C     4.992000000    -1.879000000     1.414000000
H     4.976000000    -2.691000000     0.691000000
C     4.123000000    -0.349000000    -0.396000000
O     4.597000000     0.862000000    -1.046000000
H     3.026000000    -0.425000000    -0.424000000
O     4.499000000    -1.419000000    -1.337000000
C     3.569000000    -1.905000000    -2.191000000
C     2.780000000    -2.957000000    -1.833000000
H     2.862000000    -3.427000000    -0.856000000
C     1.781000000    -3.445000000    -2.663000000
O     1.029000000    -4.488000000    -2.156000000
C     1.526000000    -2.883000000    -3.911000000
C     0.294000000    -3.298000000    -4.696000000
H     0.452000000    -3.073000000    -5.753000000
C    -0.991000000    -2.587000000    -4.189000000
C    -1.369000000    -1.276000000    -4.647000000
H    -0.913000000    -0.902000000    -5.560000000
H     0.054000000    -4.360000000    -4.774000000
C     2.309000000    -1.707000000    -4.239000000
H     2.037000000    -1.124000000    -5.115000000
C     3.296000000    -1.222000000    -3.393000000
C     4.063000000     0.068000000    -3.741000000
H     4.206000000     0.177000000    -4.818000000
H     5.110000000    -0.093000000    -3.476000000
C     3.445000000     1.337000000    -3.099000000
C     2.551000000     2.158000000    -3.743000000
H     2.303000000     1.891000000    -4.768000000
C     3.691000000     1.574000000    -1.748000000
C     3.165000000     2.682000000    -1.148000000
H     3.493000000     3.007000000    -0.164000000
C     2.284000000     3.516000000    -1.787000000
O     1.767000000     4.596000000    -1.110000000
C     0.430000000     4.492000000    -0.673000000
C     0.247000000     4.997000000     0.695000000
C    -0.955000000     5.449000000     1.157000000
H    -1.801000000     5.460000000     0.475000000
C     1.356000000     4.885000000     1.613000000
H     2.214000000     4.319000000     1.259000000
O    -0.492000000     5.012000000    -1.665000000
H     0.308000000     3.402000000    -0.591000000
C     1.936000000     3.267000000    -3.138000000
C     0.947000000     4.017000000    -3.869000000
H     1.197000000     3.907000000    -4.927000000
H     1.010000000     5.071000000    -3.592000000
C    -0.494000000     3.494000000    -3.528000000
C    -1.038000000     2.364000000    -4.206000000
H    -0.536000000     1.870000000    -5.033000000
C    -1.103000000     3.993000000    -2.419000000
C    -2.295000000     3.521000000    -1.980000000
H    -2.761000000     3.813000000    -1.043000000
C    -2.914000000     2.468000000    -2.698000000
O    -4.062000000     1.809000000    -2.153000000
C    -3.820000000     0.500000000    -1.515000000
C    -4.473000000     0.453000000    -0.135000000
C    -4.273000000     1.474000000     0.885000000
H    -3.743000000     2.395000000     0.658000000
C    -5.125000000    -0.699000000     0.297000000
H    -5.305000000    -1.465000000    -0.453000000
O    -4.243000000    -0.546000000    -2.397000000
H    -2.753000000     0.406000000    -1.267000000
C    -2.253000000     1.927000000    -3.790000000
C    -2.805000000     0.699000000    -4.571000000
H    -2.475000000     0.855000000    -5.600000000
H    -3.895000000     0.735000000    -4.616000000
C    -2.482000000    -0.674000000    -4.053000000
C    -3.199000000    -1.237000000    -3.023000000
C    -2.786000000    -2.458000000    -2.543000000
H    -3.382000000    -2.882000000    -1.739000000
C    -1.664000000    -3.048000000    -3.093000000
O    -1.261000000    -4.238000000    -2.409000000
C    -0.228000000    -4.091000000    -1.471000000
H    -0.148000000    -3.041000000    -1.154000000
C    -0.524000000    -4.836000000    -0.163000000
C     0.626000000    -5.292000000     0.644000000
H     1.658000000    -5.176000000     0.322000000
C    -1.791000000    -4.852000000     0.418000000
H    -2.648000000    -4.466000000    -0.128000000
C    -2.054000000    -5.332000000     1.681000000
O    -3.325000000    -5.452000000     2.284000000
C    -0.950000000    -5.833000000     2.392000000
H    -1.106000000    -6.238000000     3.389000000
C     0.434000000    -5.706000000     1.955000000
O     1.505000000    -6.117000000     2.678000000
C     2.844000000    -5.786000000     2.494000000
C     3.434000000    -4.633000000     3.097000000
H     2.816000000    -3.968000000     3.695000000
C     3.584000000    -6.623000000     1.727000000
H     3.064000000    -7.404000000     1.178000000
C     4.975000000    -6.408000000     1.537000000
H     5.515000000    -7.172000000     0.984000000
C     5.568000000    -5.330000000     2.132000000
H     6.649000000    -5.219000000     2.156000000
C     4.778000000    -4.412000000     2.813000000
O     5.424000000    -3.292000000     3.349000000
C     5.273000000    -2.009000000     2.770000000
C     5.308000000    -0.936000000     3.625000000
H     5.596000000    -0.981000000     4.673000000
C     5.031000000     0.343000000     3.124000000
O     5.082000000     1.409000000     3.996000000
C     4.884000000     2.697000000     3.518000000
C     3.651000000     3.315000000     3.767000000
H     2.836000000     2.824000000     4.293000000
C     5.926000000     3.436000000     2.958000000
H     6.862000000     2.935000000     2.728000000
C     5.721000000     4.804000000     2.703000000
H     6.531000000     5.454000000     2.382000000
C     4.566000000     5.417000000     3.026000000
H     4.571000000     6.503000000     3.001000000
C     3.517000000     4.648000000     3.468000000
O     2.306000000     5.231000000     3.808000000
C     1.265000000     5.386000000     2.957000000
C     0.045000000     5.843000000     3.401000000
H    -0.102000000     6.338000000     4.358000000
C    -1.038000000     5.907000000     2.504000000
O    -2.247000000     6.328000000     3.071000000
C    -3.443000000     5.687000000     2.757000000
C    -3.561000000     4.288000000     3.086000000
H    -2.744000000     3.732000000     3.541000000
C    -4.508000000     6.286000000     2.021000000
H    -4.338000000     7.326000000     1.751000000
C    -5.727000000     5.568000000     1.754000000
H    -6.555000000     5.929000000     1.150000000
C    -5.824000000     4.231000000     2.101000000
H    -6.720000000     3.630000000     1.966000000
C    -4.717000000     3.633000000     2.683000000
O    -4.869000000     2.315000000     3.013000000
C    -4.944000000     1.321000000     2.104000000
C    -5.771000000     0.233000000     2.324000000
H    -6.350000000     0.136000000     3.240000000
C    -5.779000000    -0.834000000     1.470000000
O    -6.537000000    -1.949000000     1.732000000
C    -6.120000000    -3.220000000     1.507000000
C    -7.065000000    -4.158000000     1.082000000
H    -8.040000000    -3.785000000     0.778000000
C    -6.731000000    -5.508000000     0.972000000
H    -7.323000000    -6.316000000     0.552000000
C    -5.406000000    -5.857000000     1.243000000
H    -5.029000000    -6.874000000     1.314000000
C    -4.470000000    -4.922000000     1.711000000
C    -4.849000000    -3.629000000     1.870000000
H    -4.275000000    -2.857000000     2.377000000
C    -1.071000000    -1.190000000     1.832000000
H    -1.675000000    -2.055000000     2.092000000
C    -0.868000000    -0.660000000     0.559000000
H    -1.469000000    -0.977000000    -0.289000000
C    -0.039000000     0.392000000     0.222000000
H     0.082000000     0.799000000    -0.732000000
C     0.688000000     0.991000000     1.233000000
H     1.249000000     1.906000000     1.066000000
C     0.648000000     0.408000000     2.534000000
H     1.216000000     0.924000000     3.305000000
C    -0.181000000    -0.704000000     2.794000000
C    -0.344000000    -1.192000000     4.202000000
O     0.279000000    -0.729000000     5.120000000
O    -1.136000000    -2.073000000     4.497000000
O    -0.196000000    -3.590000000     6.583000000
H    -0.439000000    -4.495000000     6.387000000
H    -0.532000000    -3.086000000     5.842000000
O    -0.614000000    -3.253000000     9.373000000
H    -0.701000000    -3.188000000     8.422000000
H    -0.054000000    -4.016000000     9.512000000
O     4.562000000     1.679000000     7.826000000
H     3.649000000     1.968000000     7.831000000
H     4.976000000     2.203000000     7.141000000
O     1.889000000     2.393000000     7.874000000
H     1.486000000     2.314000000     8.739000000
H     1.865000000     3.330000000     7.683000000
O    -5.695000000     0.949000000     6.782000000
H    -4.889000000     1.386000000     6.508000000
H    -5.702000000     0.128000000     6.291000000
O    -6.096000000    -1.193000000     5.155000000
H    -6.450000000    -1.953000000     4.694000000
H    -5.190000000    -1.431000000     5.352000000
O    -3.647000000    -2.233000000     5.469000000
H    -2.794000000    -2.370000000     5.056000000
H    -3.917000000    -3.105000000     5.757000000
O    -0.266000000     1.722000000     5.665000000
H     0.086000000     1.727000000     6.555000000
H    -0.011000000     0.870000000     5.312000000
O    -2.199000000     1.290000000     9.226000000
H    -1.931000000     0.616000000     9.851000000
H    -1.572000000     1.212000000     8.507000000
O     2.186000000    -1.398000000     7.197000000
H     1.777000000    -2.126000000     6.730000000
H     2.139000000    -0.664000000     6.584000000
O     1.322000000    -7.172000000     5.385000000
H     1.641000000    -6.863000000     4.536000000
H     0.573000000    -7.728000000     5.171000000
O     4.873000000    -4.220000000     6.512000000
H     5.525000000    -4.904000000     6.360000000
H     4.047000000    -4.608000000     6.223000000
O     0.448000000     4.442000000     6.265000000
H     0.119000000     3.614000000     5.913000000
H     1.264000000     4.597000000     5.789000000
O    -3.333000000    -1.602000000     8.117000000
H    -3.485000000    -1.824000000     7.199000000
H    -2.406000000    -1.370000000     8.158000000
O    -4.574000000    -4.855000000     5.020000000
H    -5.515000000    -4.698000000     4.942000000
H    -4.255000000    -4.850000000     4.118000000
O    -2.006000000    -5.945000000     6.171000000
H    -2.747000000    -5.731000000     5.605000000
H    -1.589000000    -6.695000000     5.747000000
O     3.571000000    -0.710000000     9.546000000
H     4.160000000    -0.004000000     9.280000000
H     2.989000000    -0.831000000     8.795000000
O    -3.375000000     1.638000000     5.611000000
H    -2.458000000     1.579000000     5.878000000
H    -3.420000000     1.136000000     4.797000000
O    -0.783000000    -0.439000000     7.565000000
H     0.058000000    -0.809000000     7.834000000
H    -0.766000000    -0.477000000     6.609000000
