215
-1463.78186
C     5.118000000    -0.768000000     1.794000000
H     4.969000000     0.304000000     1.691000000
C     4.887000000    -1.613000000     0.636000000
C     4.993000000    -2.994000000     0.884000000
H     4.706000000    -3.692000000     0.102000000
C     4.277000000    -1.175000000    -0.730000000
O     4.871000000     0.102000000    -1.076000000
H     3.213000000    -1.044000000    -0.482000000
O     4.343000000    -2.200000000    -1.771000000
C     3.244000000    -2.321000000    -2.554000000
C     2.303000000    -3.222000000    -2.246000000
H     2.463000000    -3.802000000    -1.342000000
C     1.126000000    -3.330000000    -2.995000000
O     0.162000000    -4.071000000    -2.406000000
C     0.897000000    -2.455000000    -4.045000000
C    -0.409000000    -2.464000000    -4.873000000
H    -0.285000000    -2.033000000    -5.869000000
C    -1.438000000    -1.543000000    -4.158000000
C    -1.569000000    -0.251000000    -4.567000000
H    -0.966000000     0.201000000    -5.350000000
H    -0.745000000    -3.499000000    -4.966000000
C     1.796000000    -1.468000000    -4.347000000
H     1.568000000    -0.657000000    -5.034000000
C     2.974000000    -1.409000000    -3.577000000
C     4.088000000    -0.432000000    -3.919000000
H     4.158000000    -0.147000000    -4.970000000
H     5.092000000    -0.813000000    -3.720000000
C     3.790000000     0.859000000    -3.153000000
C     2.984000000     1.864000000    -3.643000000
H     2.547000000     1.751000000    -4.632000000
C     4.234000000     1.009000000    -1.854000000
C     3.872000000     2.076000000    -1.048000000
H     4.327000000     2.139000000    -0.063000000
C     2.970000000     3.011000000    -1.498000000
O     2.565000000     3.949000000    -0.566000000
C     1.168000000     3.778000000    -0.088000000
C     1.079000000     3.989000000     1.450000000
C    -0.093000000     4.531000000     1.959000000
H    -0.952000000     4.793000000     1.347000000
C     2.172000000     3.638000000     2.222000000
H     3.035000000     3.117000000     1.816000000
O     0.362000000     4.629000000    -0.850000000
H     0.970000000     2.718000000    -0.308000000
C     2.586000000     2.958000000    -2.851000000
C     1.669000000     4.015000000    -3.392000000
H     1.662000000     4.006000000    -4.484000000
H     1.908000000     4.986000000    -2.952000000
C     0.166000000     3.779000000    -3.069000000
C    -0.666000000     3.156000000    -3.987000000
H    -0.181000000     2.761000000    -4.876000000
C    -0.367000000     4.175000000    -1.827000000
C    -1.664000000     3.887000000    -1.442000000
H    -2.096000000     4.099000000    -0.467000000
C    -2.507000000     3.300000000    -2.375000000
O    -3.768000000     2.892000000    -1.936000000
C    -3.931000000     1.539000000    -1.473000000
C    -4.715000000     1.499000000    -0.148000000
C    -4.986000000     2.675000000     0.552000000
H    -4.685000000     3.652000000     0.183000000
C    -5.085000000     0.286000000     0.455000000
H    -4.845000000    -0.720000000     0.121000000
O    -4.453000000     0.704000000    -2.501000000
H    -2.931000000     1.177000000    -1.193000000
C    -2.016000000     2.843000000    -3.610000000
C    -2.877000000     1.961000000    -4.524000000
H    -2.517000000     2.153000000    -5.536000000
H    -3.931000000     2.239000000    -4.448000000
C    -2.637000000     0.515000000    -4.072000000
C    -3.516000000    -0.036000000    -3.135000000
C    -3.385000000    -1.371000000    -2.737000000
H    -3.956000000    -1.897000000    -1.977000000
C    -2.365000000    -2.115000000    -3.272000000
O    -1.991000000    -3.380000000    -2.716000000
C    -0.948000000    -3.458000000    -1.770000000
H    -0.550000000    -2.463000000    -1.523000000
C    -1.328000000    -4.158000000    -0.427000000
C    -0.314000000    -4.480000000     0.435000000
H     0.719000000    -4.225000000     0.208000000
C    -2.664000000    -4.431000000    -0.052000000
H    -3.504000000    -4.206000000    -0.704000000
C    -2.914000000    -5.039000000     1.201000000
O    -4.260000000    -5.248000000     1.557000000
C    -1.893000000    -5.447000000     1.986000000
H    -2.103000000    -5.879000000     2.961000000
C    -0.550000000    -5.126000000     1.633000000
O     0.517000000    -5.259000000     2.536000000
C     1.749000000    -5.776000000     2.205000000
C     2.895000000    -5.018000000     2.504000000
H     2.754000000    -4.013000000     2.894000000
C     1.807000000    -6.999000000     1.559000000
H     0.862000000    -7.507000000     1.384000000
C     3.073000000    -7.561000000     1.264000000
H     3.118000000    -8.451000000     0.641000000
C     4.206000000    -6.858000000     1.563000000
H     5.062000000    -7.244000000     1.015000000
C     4.153000000    -5.599000000     2.160000000
O     5.340000000    -4.891000000     2.185000000
C     5.306000000    -3.509000000     2.094000000
C     5.537000000    -2.728000000     3.211000000
H     5.649000000    -3.216000000     4.176000000
C     5.338000000    -1.330000000     3.071000000
O     5.516000000    -0.510000000     4.185000000
C     5.479000000     0.875000000     4.127000000
C     4.322000000     1.650000000     4.440000000
H     3.424000000     1.171000000     4.819000000
C     6.560000000     1.546000000     3.520000000
H     7.352000000     0.952000000     3.072000000
C     6.543000000     2.973000000     3.403000000
H     7.424000000     3.373000000     2.907000000
C     5.436000000     3.701000000     3.743000000
H     5.473000000     4.755000000     3.478000000
C     4.268000000     3.034000000     4.148000000
O     3.077000000     3.710000000     4.412000000
C     2.054000000     3.965000000     3.558000000
C     0.846000000     4.434000000     4.111000000
H     0.785000000     4.605000000     5.182000000
C    -0.222000000     4.710000000     3.264000000
O    -1.379000000     5.190000000     3.872000000
C    -2.561000000     5.461000000     3.140000000
C    -3.651000000     4.579000000     3.170000000
H    -3.448000000     3.653000000     3.701000000
C    -2.501000000     6.565000000     2.341000000
H    -1.640000000     7.213000000     2.193000000
C    -3.618000000     6.754000000     1.447000000
H    -3.652000000     7.627000000     0.800000000
C    -4.760000000     5.929000000     1.601000000
H    -5.591000000     6.116000000     0.925000000
C    -4.786000000     4.876000000     2.409000000
O    -5.836000000     3.954000000     2.328000000
C    -5.605000000     2.703000000     1.750000000
C    -6.029000000     1.496000000     2.323000000
H    -6.454000000     1.514000000     3.323000000
C    -5.762000000     0.284000000     1.683000000
O    -6.042000000    -0.886000000     2.300000000
C    -6.142000000    -2.105000000     1.685000000
C    -7.295000000    -2.495000000     1.006000000
H    -8.097000000    -1.778000000     0.849000000
C    -7.428000000    -3.800000000     0.468000000
H    -8.377000000    -4.048000000     0.000000000
C    -6.388000000    -4.681000000     0.719000000
H    -6.481000000    -5.666000000     0.269000000
C    -5.229000000    -4.338000000     1.395000000
C    -5.090000000    -3.010000000     1.887000000
H    -4.277000000    -2.721000000     2.549000000
C    -1.108000000    -1.634000000     1.763000000
H    -1.953000000    -2.181000000     2.171000000
C    -1.349000000    -0.799000000     0.685000000
H    -2.371000000    -0.795000000     0.315000000
C    -0.365000000    -0.038000000     0.171000000
H    -0.640000000     0.606000000    -0.742000000
C     0.868000000     0.056000000     0.781000000
H     1.638000000     0.699000000     0.361000000
C     1.137000000    -0.742000000     1.916000000
H     2.112000000    -0.733000000     2.397000000
C     0.185000000    -1.703000000     2.365000000
C     0.472000000    -2.362000000     3.690000000
O     1.583000000    -2.326000000     4.196000000
O    -0.492000000    -2.725000000     4.335000000
O    -1.652000000    -0.283000000     4.660000000
H    -1.462000000    -1.217000000     4.756000000
H    -1.447000000    -0.090000000     3.745000000
O    -5.653000000    -4.603000000     5.235000000
H    -4.759000000    -4.490000000     4.911000000
H    -5.624000000    -5.416000000     5.739000000
O    -0.905000000    -0.981000000     9.744000000
H    -1.401000000    -0.838000000     8.937000000
H    -0.356000000    -1.742000000     9.556000000
O     0.185000000    -2.100000000     7.139000000
H     0.353000000    -2.888000000     6.623000000
H     0.504000000    -1.382000000     6.592000000
O     1.499000000     0.366000000     9.593000000
H     0.612000000     0.018000000     9.690000000
H     1.993000000    -0.347000000     9.189000000
O    -1.876000000    -0.054000000     7.386000000
H    -1.736000000    -0.453000000     6.527000000
H    -1.543000000     0.838000000     7.293000000
O     4.068000000    -5.717000000     6.165000000
H     4.233000000    -4.823000000     5.866000000
H     3.636000000    -5.610000000     7.013000000
O     3.353000000    -1.358000000     8.376000000
H     4.098000000    -1.195000000     8.955000000
H     3.732000000    -1.802000000     7.618000000
O     1.862000000    -0.310000000     5.913000000
H     2.373000000    -0.698000000     6.624000000
H     2.022000000    -0.883000000     5.163000000
O     3.549000000    -2.752000000     5.897000000
H     2.907000000    -3.174000000     6.468000000
H     3.080000000    -2.603000000     5.077000000
O     0.918000000    -3.674000000     9.239000000
H     0.743000000    -3.158000000     8.452000000
H     1.769000000    -4.079000000     9.076000000
O     0.872000000    -4.570000000     6.032000000
H     0.657000000    -5.479000000     5.823000000
H     0.505000000    -4.064000000     5.307000000
O     5.942000000    -0.507000000     7.116000000
H     5.727000000    -0.887000000     6.264000000
H     6.098000000     0.419000000     6.933000000
O    -3.094000000    -2.917000000     7.566000000
H    -2.616000000    -2.088000000     7.555000000
H    -2.885000000    -3.303000000     8.416000000
O    -2.816000000    -3.978000000     5.054000000
H    -2.032000000    -3.601000000     4.653000000
H    -2.812000000    -3.641000000     5.950000000
O     3.308000000    -8.066000000     5.407000000
H     3.684000000    -7.190000000     5.492000000
H     2.362000000    -7.923000000     5.420000000
O     0.306000000    -6.905000000     4.957000000
H    -0.393000000    -7.501000000     5.225000000
H     0.052000000    -6.616000000     4.081000000
O    -0.809000000    -5.800000000     8.638000000
H    -0.126000000    -5.141000000     8.766000000
H    -0.709000000    -6.074000000     7.726000000
O    -0.074000000     1.680000000     6.263000000
H     0.724000000     1.157000000     6.192000000
H    -0.628000000     1.372000000     5.546000000
