215
-1456.42144
C     4.800000000     1.549000000     0.909000000
H     4.564000000     2.439000000     0.331000000
C     4.690000000     0.273000000     0.250000000
C     4.905000000    -0.805000000     1.053000000
H     4.788000000    -1.800000000     0.631000000
C     4.069000000     0.104000000    -1.067000000
O     4.350000000     1.289000000    -1.866000000
H     2.987000000     0.057000000    -0.874000000
O     4.418000000    -1.077000000    -1.808000000
C     3.481000000    -1.778000000    -2.496000000
C     2.920000000    -2.906000000    -1.889000000
H     3.297000000    -3.218000000    -0.918000000
C     1.839000000    -3.484000000    -2.406000000
O     1.307000000    -4.488000000    -1.664000000
C     1.214000000    -3.033000000    -3.573000000
C    -0.031000000    -3.774000000    -4.130000000
H    -0.086000000    -3.548000000    -5.197000000
C    -1.364000000    -3.301000000    -3.480000000
C    -2.100000000    -2.276000000    -4.060000000
H    -1.776000000    -1.912000000    -5.031000000
H     0.052000000    -4.845000000    -3.931000000
C     1.813000000    -1.911000000    -4.229000000
H     1.514000000    -1.620000000    -5.233000000
C     2.892000000    -1.245000000    -3.664000000
C     3.482000000     0.021000000    -4.319000000
H     3.385000000     0.035000000    -5.406000000
H     4.544000000     0.012000000    -4.065000000
C     2.787000000     1.248000000    -3.716000000
C     1.700000000     1.797000000    -4.401000000
H     1.368000000     1.235000000    -5.270000000
C     3.313000000     1.862000000    -2.567000000
C     2.673000000     3.004000000    -2.033000000
H     3.045000000     3.446000000    -1.112000000
C     1.543000000     3.478000000    -2.611000000
O     0.931000000     4.431000000    -1.894000000
C    -0.287000000     4.157000000    -1.115000000
C    -0.321000000     4.972000000     0.181000000
C    -1.459000000     4.972000000     0.982000000
H    -2.409000000     4.664000000     0.553000000
C     0.871000000     5.494000000     0.645000000
H     1.752000000     5.376000000     0.019000000
O    -1.404000000     4.430000000    -1.992000000
H    -0.315000000     3.087000000    -0.864000000
C     1.004000000     2.851000000    -3.788000000
C    -0.279000000     3.342000000    -4.386000000
H    -0.243000000     3.048000000    -5.437000000
H    -0.371000000     4.416000000    -4.210000000
C    -1.485000000     2.715000000    -3.715000000
C    -1.995000000     1.503000000    -4.126000000
H    -1.587000000     0.925000000    -4.952000000
C    -1.976000000     3.332000000    -2.564000000
C    -3.008000000     2.695000000    -1.829000000
H    -3.426000000     3.133000000    -0.926000000
C    -3.578000000     1.500000000    -2.266000000
O    -4.599000000     0.891000000    -1.466000000
C    -4.110000000    -0.255000000    -0.712000000
C    -4.685000000    -0.261000000     0.713000000
C    -5.050000000     0.890000000     1.380000000
H    -4.944000000     1.804000000     0.802000000
C    -4.929000000    -1.453000000     1.381000000
H    -4.586000000    -2.415000000     1.008000000
O    -4.438000000    -1.508000000    -1.314000000
H    -3.042000000    -0.125000000    -0.485000000
C    -3.091000000     0.927000000    -3.469000000
C    -3.777000000    -0.375000000    -3.967000000
H    -3.696000000    -0.543000000    -5.042000000
H    -4.827000000    -0.399000000    -3.667000000
C    -3.148000000    -1.697000000    -3.349000000
C    -3.532000000    -2.203000000    -2.093000000
C    -2.825000000    -3.285000000    -1.486000000
H    -3.070000000    -3.624000000    -0.483000000
C    -1.696000000    -3.715000000    -2.196000000
O    -1.038000000    -4.721000000    -1.522000000
C     0.126000000    -4.183000000    -0.899000000
H     0.069000000    -3.087000000    -0.835000000
C     0.344000000    -4.683000000     0.492000000
C     1.559000000    -5.119000000     1.055000000
H     2.360000000    -5.093000000     0.321000000
C    -0.797000000    -4.745000000     1.366000000
H    -1.705000000    -4.434000000     0.856000000
C    -0.764000000    -5.169000000     2.699000000
O    -1.851000000    -5.241000000     3.458000000
C     0.512000000    -5.515000000     3.217000000
H     0.570000000    -5.817000000     4.260000000
C     1.681000000    -5.466000000     2.401000000
O     2.942000000    -5.882000000     2.864000000
C     4.066000000    -5.162000000     2.597000000
C     4.270000000    -3.847000000     3.070000000
H     3.585000000    -3.381000000     3.773000000
C     5.068000000    -5.686000000     1.801000000
H     5.047000000    -6.714000000     1.450000000
C     6.239000000    -5.043000000     1.502000000
H     7.018000000    -5.471000000     0.876000000
C     6.439000000    -3.734000000     1.947000000
H     7.360000000    -3.209000000     1.705000000
C     5.390000000    -3.107000000     2.682000000
O     5.591000000    -1.797000000     3.197000000
C     5.382000000    -0.669000000     2.368000000
C     5.659000000     0.544000000     2.927000000
H     6.063000000     0.636000000     3.932000000
C     5.348000000     1.680000000     2.189000000
O     5.529000000     2.930000000     2.784000000
C     5.127000000     4.106000000     2.190000000
C     3.869000000     4.606000000     2.626000000
H     3.351000000     4.201000000     3.492000000
C     5.894000000     4.782000000     1.212000000
H     6.919000000     4.511000000     0.969000000
C     5.334000000     5.876000000     0.539000000
H     5.940000000     6.410000000    -0.188000000
C     4.085000000     6.360000000     0.924000000
H     3.769000000     7.267000000     0.415000000
C     3.381000000     5.802000000     2.021000000
O     2.194000000     6.375000000     2.412000000
C     1.003000000     5.961000000     1.913000000
C    -0.130000000     5.941000000     2.788000000
H    -0.051000000     6.361000000     3.788000000
C    -1.302000000     5.301000000     2.306000000
O    -2.335000000     5.047000000     3.143000000
C    -3.661000000     4.766000000     2.861000000
C    -4.251000000     3.542000000     3.260000000
H    -3.710000000     2.792000000     3.832000000
C    -4.458000000     5.746000000     2.364000000
H    -3.939000000     6.637000000     2.018000000
C    -5.746000000     5.466000000     1.902000000
H    -6.330000000     6.200000000     1.353000000
C    -6.370000000     4.254000000     2.234000000
H    -7.388000000     4.002000000     1.947000000
C    -5.596000000     3.252000000     2.934000000
O    -6.085000000     1.966000000     3.202000000
C    -5.641000000     0.835000000     2.605000000
C    -5.879000000    -0.358000000     3.229000000
H    -6.410000000    -0.326000000     4.176000000
C    -5.557000000    -1.530000000     2.614000000
O    -5.795000000    -2.755000000     3.289000000
C    -5.209000000    -3.905000000     2.966000000
C    -5.661000000    -4.726000000     1.922000000
H    -6.605000000    -4.489000000     1.438000000
C    -4.940000000    -5.814000000     1.491000000
H    -5.325000000    -6.368000000     0.639000000
C    -3.674000000    -5.986000000     2.007000000
H    -2.919000000    -6.614000000     1.539000000
C    -3.162000000    -5.158000000     3.043000000
C    -3.966000000    -4.140000000     3.574000000
H    -3.652000000    -3.569000000     4.443000000
C    -1.339000000    -0.440000000     1.952000000
H    -2.039000000    -1.233000000     2.201000000
C    -0.623000000    -0.689000000     0.802000000
H    -0.731000000    -1.695000000     0.406000000
C     0.287000000     0.214000000     0.306000000
H     0.793000000     0.135000000    -0.620000000
C     0.569000000     1.355000000     1.048000000
H     1.364000000     1.964000000     0.627000000
C    -0.224000000     1.693000000     2.162000000
H     0.099000000     2.506000000     2.808000000
C    -1.177000000     0.769000000     2.583000000
C    -1.818000000     1.035000000     3.959000000
O    -1.548000000     2.051000000     4.463000000
O    -2.618000000     0.329000000     4.455000000
O     1.875000000    -0.793000000     7.908000000
H     1.575000000     0.091000000     8.120000000
H     1.440000000    -1.002000000     7.081000000
O     0.256000000     6.537000000     6.056000000
H     0.598000000     5.644000000     6.039000000
H     0.060000000     6.701000000     6.979000000
O    -2.348000000    -4.744000000     6.605000000
H    -2.515000000    -4.106000000     5.911000000
H    -2.468000000    -5.594000000     6.181000000
O    -4.082000000     5.604000000     6.058000000
H    -5.011000000     5.373000000     6.063000000
H    -3.667000000     4.914000000     5.540000000
O    -1.302000000    -0.206000000     9.624000000
H    -1.407000000    -0.075000000     8.682000000
H    -2.196000000    -0.300000000     9.954000000
O     2.298000000    -1.191000000     2.855000000
H     1.765000000    -0.600000000     2.324000000
H     3.150000000    -1.202000000     2.419000000
O     2.462000000     3.230000000     5.953000000
H     1.544000000     3.499000000     5.916000000
H     2.921000000     3.995000000     6.301000000
O     1.202000000    -1.760000000     5.279000000
H     0.389000000    -1.656000000     4.783000000
H     1.895000000    -1.630000000     4.632000000
O     4.196000000     1.325000000     5.429000000
H     3.741000000     2.148000000     5.607000000
H     3.952000000     1.105000000     4.530000000
O    -6.461000000     0.158000000     8.398000000
H    -7.322000000     0.360000000     8.030000000
H    -5.883000000     0.102000000     7.637000000
O     1.428000000     1.865000000     8.201000000
H     2.018000000     2.236000000     7.545000000
H     0.970000000     2.622000000     8.566000000
O    -0.142000000     3.847000000     5.901000000
H    -0.865000000     4.229000000     6.398000000
H    -0.556000000     3.189000000     5.343000000
O    -2.507000000     2.929000000     9.226000000
H    -2.718000000     2.717000000     8.317000000
H    -2.874000000     2.204000000     9.732000000
O    -4.201000000    -0.315000000     6.796000000
H    -3.829000000    -1.182000000     6.957000000
H    -3.778000000    -0.019000000     5.990000000
O    -1.853000000     5.034000000     7.752000000
H    -2.598000000     5.447000000     7.317000000
H    -2.236000000     4.313000000     8.252000000
O    -2.123000000    -2.127000000     5.486000000
H    -2.473000000    -1.385000000     4.992000000
H    -1.643000000    -1.726000000     6.211000000
O     1.141000000    -4.232000000     6.356000000
H     1.282000000    -3.588000000     5.662000000
H     0.853000000    -3.714000000     7.108000000
O    -0.756000000     0.303000000     6.886000000
H    -1.223000000     0.910000000     6.311000000
H    -0.078000000     0.839000000     7.299000000
O    -3.103000000     2.505000000     6.566000000
H    -2.625000000     2.393000000     5.745000000
H    -3.653000000     1.724000000     6.632000000
