215
-1454.78154
C     4.832000000     1.943000000     0.595000000
H     4.352000000     2.723000000     0.010000000
C     4.885000000     0.656000000     0.112000000
C     5.304000000    -0.385000000     0.917000000
H     5.305000000    -1.402000000     0.533000000
C     4.248000000     0.304000000    -1.254000000
O     4.408000000     1.460000000    -2.123000000
H     3.192000000     0.165000000    -0.978000000
O     4.870000000    -0.900000000    -1.806000000
C     3.923000000    -1.798000000    -2.348000000
C     3.352000000    -2.752000000    -1.554000000
H     3.732000000    -2.948000000    -0.555000000
C     2.213000000    -3.431000000    -1.888000000
O     1.686000000    -4.340000000    -0.995000000
C     1.581000000    -3.260000000    -3.149000000
C     0.349000000    -3.918000000    -3.533000000
H     0.143000000    -3.958000000    -4.604000000
C    -0.966000000    -3.375000000    -2.945000000
C    -1.768000000    -2.491000000    -3.749000000
H    -1.353000000    -2.341000000    -4.743000000
H     0.477000000    -4.945000000    -3.184000000
C     2.102000000    -2.216000000    -3.946000000
H     1.557000000    -1.946000000    -4.847000000
C     3.300000000    -1.496000000    -3.593000000
C     3.695000000    -0.256000000    -4.430000000
H     3.417000000    -0.298000000    -5.485000000
H     4.783000000    -0.175000000    -4.398000000
C     2.929000000     1.065000000    -4.009000000
C     1.647000000     1.323000000    -4.478000000
H     1.309000000     0.702000000    -5.304000000
C     3.365000000     1.849000000    -2.975000000
C     2.589000000     2.966000000    -2.565000000
H     3.004000000     3.551000000    -1.748000000
C     1.339000000     3.193000000    -3.124000000
O     0.607000000     4.155000000    -2.529000000
C    -0.533000000     3.857000000    -1.713000000
C    -0.447000000     4.676000000    -0.400000000
C    -1.526000000     4.530000000     0.416000000
H    -2.351000000     3.869000000     0.162000000
C     0.703000000     5.318000000     0.050000000
H     1.604000000     5.326000000    -0.557000000
O    -1.766000000     3.982000000    -2.450000000
H    -0.358000000     2.853000000    -1.298000000
C     0.827000000     2.343000000    -4.045000000
C    -0.532000000     2.537000000    -4.753000000
H    -0.476000000     2.222000000    -5.797000000
H    -0.714000000     3.603000000    -4.908000000
C    -1.723000000     2.054000000    -3.946000000
C    -2.342000000     0.866000000    -4.301000000
H    -2.009000000     0.316000000    -5.177000000
C    -2.307000000     2.749000000    -2.839000000
C    -3.365000000     2.276000000    -2.046000000
H    -3.759000000     2.903000000    -1.250000000
C    -3.961000000     1.044000000    -2.426000000
O    -4.853000000     0.449000000    -1.530000000
C    -4.218000000    -0.518000000    -0.639000000
C    -4.965000000    -0.414000000     0.696000000
C    -5.374000000     0.825000000     1.167000000
H    -5.242000000     1.709000000     0.548000000
C    -5.160000000    -1.577000000     1.492000000
H    -4.844000000    -2.536000000     1.090000000
O    -4.438000000    -1.845000000    -1.225000000
H    -3.153000000    -0.278000000    -0.502000000
C    -3.394000000     0.352000000    -3.561000000
C    -3.916000000    -1.029000000    -3.924000000
H    -3.861000000    -1.186000000    -5.003000000
H    -4.921000000    -1.292000000    -3.586000000
C    -2.978000000    -1.935000000    -3.198000000
C    -3.338000000    -2.387000000    -1.920000000
C    -2.581000000    -3.343000000    -1.213000000
H    -2.832000000    -3.637000000    -0.198000000
C    -1.432000000    -3.838000000    -1.718000000
O    -0.705000000    -4.674000000    -0.912000000
C     0.443000000    -4.033000000    -0.333000000
H     0.349000000    -2.946000000    -0.476000000
C     0.528000000    -4.321000000     1.177000000
C     1.761000000    -4.306000000     1.884000000
H     2.694000000    -3.998000000     1.419000000
C    -0.617000000    -4.501000000     1.923000000
H    -1.617000000    -4.424000000     1.505000000
C    -0.561000000    -4.842000000     3.259000000
O    -1.737000000    -5.007000000     4.060000000
C     0.645000000    -4.954000000     3.942000000
H     0.617000000    -5.297000000     4.974000000
C     1.795000000    -4.556000000     3.234000000
O     3.037000000    -4.467000000     3.969000000
C     4.200000000    -4.153000000     3.316000000
C     4.681000000    -2.813000000     3.340000000
H     4.016000000    -2.021000000     3.676000000
C     4.982000000    -5.129000000     2.821000000
H     4.617000000    -6.153000000     2.796000000
C     6.289000000    -4.871000000     2.354000000
H     6.891000000    -5.605000000     1.826000000
C     6.764000000    -3.544000000     2.388000000
H     7.762000000    -3.387000000     1.988000000
C     5.965000000    -2.486000000     2.869000000
O     6.443000000    -1.179000000     2.778000000
C     5.903000000    -0.120000000     2.102000000
C     5.839000000     1.126000000     2.676000000
H     6.322000000     1.260000000     3.640000000
C     5.326000000     2.182000000     1.908000000
O     5.272000000     3.423000000     2.535000000
C     4.821000000     4.503000000     1.850000000
C     3.563000000     4.901000000     2.104000000
H     2.946000000     4.381000000     2.832000000
C     5.625000000     5.152000000     0.879000000
H     6.637000000     4.812000000     0.674000000
C     5.124000000     6.289000000     0.273000000
H     5.613000000     6.757000000    -0.578000000
C     3.866000000     6.788000000     0.589000000
H     3.572000000     7.697000000     0.069000000
C     3.082000000     6.062000000     1.492000000
O     1.824000000     6.484000000     1.825000000
C     0.722000000     5.938000000     1.302000000
C    -0.430000000     5.883000000     2.057000000
H    -0.422000000     6.295000000     3.063000000
C    -1.603000000     5.212000000     1.626000000
O    -2.653000000     5.167000000     2.420000000
C    -3.876000000     4.765000000     1.996000000
C    -4.436000000     3.712000000     2.691000000
H    -3.864000000     3.193000000     3.456000000
C    -4.616000000     5.391000000     0.992000000
H    -4.178000000     6.186000000     0.394000000
C    -5.864000000     4.894000000     0.639000000
H    -6.372000000     5.308000000    -0.228000000
C    -6.408000000     3.877000000     1.337000000
H    -7.420000000     3.606000000     1.048000000
C    -5.769000000     3.276000000     2.401000000
O    -6.299000000     2.188000000     2.991000000
C    -5.918000000     0.908000000     2.446000000
C    -6.073000000    -0.226000000     3.245000000
H    -6.543000000    -0.205000000     4.225000000
C    -5.694000000    -1.478000000     2.772000000
O    -5.940000000    -2.670000000     3.496000000
C    -5.171000000    -3.811000000     3.411000000
C    -5.719000000    -5.013000000     3.058000000
H    -6.804000000    -5.042000000     2.995000000
C    -4.930000000    -6.147000000     2.902000000
H    -5.447000000    -7.060000000     2.618000000
C    -3.554000000    -6.024000000     3.012000000
H    -3.039000000    -6.952000000     2.776000000
C    -3.003000000    -4.863000000     3.548000000
C    -3.806000000    -3.745000000     3.703000000
H    -3.308000000    -2.877000000     4.128000000
C    -1.125000000     0.019000000     2.033000000
H    -1.653000000    -0.367000000     2.901000000
C    -0.989000000    -0.824000000     0.895000000
H    -1.421000000    -1.818000000     0.813000000
C    -0.287000000    -0.388000000    -0.171000000
H    -0.104000000    -1.120000000    -1.035000000
C     0.315000000     0.869000000    -0.156000000
H     0.766000000     1.080000000    -1.122000000
C     0.174000000     1.736000000     0.834000000
H     0.811000000     2.615000000     0.783000000
C    -0.516000000     1.312000000     1.989000000
C    -0.487000000     2.187000000     3.223000000
O     0.523000000     2.781000000     3.514000000
O    -1.280000000     1.982000000     4.083000000
O    -4.668000000     1.971000000     6.491000000
H    -4.269000000     1.301000000     5.935000000
H    -4.894000000     1.508000000     7.299000000
O     1.884000000    -1.712000000     8.853000000
H     2.474000000    -1.219000000     9.424000000
H     1.944000000    -1.268000000     8.007000000
O    -6.669000000     3.610000000     5.647000000
H    -6.063000000     2.977000000     6.033000000
H    -7.009000000     3.170000000     4.868000000
O     0.564000000     7.489000000     6.262000000
H     1.304000000     6.924000000     6.041000000
H     0.762000000     7.810000000     7.141000000
O     1.775000000    -0.992000000     3.093000000
H     2.110000000    -0.123000000     3.317000000
H     1.171000000    -0.836000000     2.367000000
O     3.176000000     2.721000000     6.896000000
H     2.433000000     2.869000000     6.311000000
H     3.908000000     3.170000000     6.472000000
O     2.705000000     1.315000000     3.689000000
H     1.953000000     1.866000000     3.471000000
H     3.423000000     1.934000000     3.827000000
O    -1.147000000     4.462000000     8.429000000
H    -1.178000000     4.110000000     7.539000000
H    -2.033000000     4.334000000     8.767000000
O     0.475000000     1.441000000     6.144000000
H    -0.085000000     0.709000000     5.886000000
H     0.385000000     2.075000000     5.433000000
O     2.316000000    -0.933000000     6.138000000
H     2.051000000    -1.140000000     5.242000000
H     2.536000000    -0.001000000     6.112000000
O     1.376000000     4.900000000     4.770000000
H     1.215000000     4.154000000     4.192000000
H     0.580000000     5.429000000     4.707000000
O    -4.096000000    -1.532000000     7.262000000
H    -4.438000000    -1.055000000     8.019000000
H    -3.542000000    -0.896000000     6.810000000
O    -2.741000000     0.278000000     5.680000000
H    -2.254000000    -0.517000000     5.463000000
H    -2.575000000     0.869000000     4.946000000
O     1.461000000     4.793000000     8.520000000
H     0.510000000     4.692000000     8.479000000
H     1.805000000     3.992000000     8.125000000
O    -0.920000000    -2.015000000     5.140000000
H    -0.116000000    -2.266000000     4.685000000
H    -1.150000000    -2.785000000     5.661000000
O     3.811000000     6.443000000     5.313000000
H     4.215000000     6.076000000     6.100000000
H     3.185000000     5.776000000     5.033000000
O    -0.960000000     1.411000000     8.267000000
H    -1.777000000     1.297000000     7.782000000
H    -0.274000000     1.307000000     7.608000000
O    -2.282000000     3.275000000     6.115000000
H    -1.728000000     2.763000000     5.526000000
H    -3.167000000     2.945000000     5.958000000
O    -2.746000000     7.063000000     6.449000000
H    -2.714000000     7.890000000     6.931000000
H    -1.830000000     6.794000000     6.375000000
