215
-1457.92693
C     4.686000000     1.016000000     1.307000000
H     4.286000000     1.948000000     0.915000000
C     4.577000000    -0.173000000     0.586000000
C     4.887000000    -1.398000000     1.150000000
H     4.872000000    -2.346000000     0.618000000
C     3.999000000    -0.102000000    -0.829000000
O     4.321000000     1.121000000    -1.556000000
H     2.910000000    -0.231000000    -0.743000000
O     4.419000000    -1.150000000    -1.635000000
C     3.485000000    -1.863000000    -2.345000000
C     2.997000000    -3.037000000    -1.843000000
H     3.432000000    -3.247000000    -0.869000000
C     1.889000000    -3.626000000    -2.390000000
O     1.228000000    -4.564000000    -1.592000000
C     1.244000000    -3.085000000    -3.516000000
C     0.031000000    -3.795000000    -4.083000000
H    -0.012000000    -3.803000000    -5.174000000
C    -1.216000000    -3.083000000    -3.564000000
C    -1.663000000    -1.943000000    -4.220000000
H    -1.182000000    -1.713000000    -5.168000000
H    -0.080000000    -4.847000000    -3.810000000
C     1.869000000    -2.034000000    -4.125000000
H     1.350000000    -1.635000000    -4.992000000
C     2.990000000    -1.379000000    -3.550000000
C     3.593000000    -0.173000000    -4.266000000
H     3.414000000    -0.146000000    -5.343000000
H     4.674000000    -0.086000000    -4.136000000
C     2.960000000     1.097000000    -3.640000000
C     1.834000000     1.711000000    -4.196000000
H     1.469000000     1.201000000    -5.084000000
C     3.385000000     1.671000000    -2.405000000
C     2.870000000     2.826000000    -1.942000000
H     3.219000000     3.187000000    -0.978000000
C     1.826000000     3.478000000    -2.604000000
O     1.234000000     4.545000000    -1.963000000
C     0.017000000     4.199000000    -1.215000000
C    -0.001000000     4.832000000     0.158000000
C    -1.182000000     5.002000000     0.823000000
H    -2.076000000     4.867000000     0.220000000
C     1.198000000     5.299000000     0.781000000
H     2.194000000     5.149000000     0.372000000
O    -1.118000000     4.474000000    -1.972000000
H    -0.085000000     3.140000000    -0.934000000
C     1.268000000     2.900000000    -3.721000000
C     0.097000000     3.531000000    -4.479000000
H     0.169000000     3.198000000    -5.517000000
H     0.110000000     4.623000000    -4.470000000
C    -1.191000000     2.956000000    -3.890000000
C    -1.729000000     1.794000000    -4.421000000
H    -1.151000000     1.320000000    -5.210000000
C    -1.757000000     3.434000000    -2.724000000
C    -2.905000000     2.869000000    -2.171000000
H    -3.433000000     3.336000000    -1.344000000
C    -3.517000000     1.852000000    -2.809000000
O    -4.456000000     1.272000000    -2.026000000
C    -3.976000000     0.105000000    -1.277000000
C    -4.456000000     0.150000000     0.197000000
C    -4.606000000     1.342000000     0.825000000
H    -4.236000000     2.252000000     0.359000000
C    -4.965000000    -1.034000000     0.739000000
H    -4.929000000    -1.996000000     0.234000000
O    -4.458000000    -1.081000000    -1.952000000
H    -2.876000000     0.123000000    -1.300000000
C    -2.893000000     1.223000000    -3.895000000
C    -3.344000000    -0.097000000    -4.453000000
H    -3.186000000    -0.123000000    -5.533000000
H    -4.427000000    -0.240000000    -4.453000000
C    -2.805000000    -1.323000000    -3.734000000
C    -3.475000000    -1.793000000    -2.565000000
C    -2.871000000    -2.781000000    -1.827000000
H    -3.278000000    -3.003000000    -0.843000000
C    -1.752000000    -3.429000000    -2.320000000
O    -1.123000000    -4.418000000    -1.502000000
C     0.089000000    -4.157000000    -0.812000000
H     0.193000000    -3.062000000    -0.782000000
C     0.080000000    -4.648000000     0.595000000
C     1.193000000    -4.983000000     1.320000000
H     2.125000000    -5.046000000     0.764000000
C    -1.157000000    -4.524000000     1.291000000
H    -2.096000000    -4.150000000     0.890000000
C    -1.191000000    -4.880000000     2.672000000
O    -2.312000000    -4.827000000     3.494000000
C    -0.044000000    -5.320000000     3.344000000
H    -0.030000000    -5.727000000     4.352000000
C     1.186000000    -5.288000000     2.689000000
O     2.285000000    -5.950000000     3.222000000
C     3.582000000    -5.507000000     3.043000000
C     3.850000000    -4.150000000     3.141000000
H     3.130000000    -3.356000000     3.325000000
C     4.619000000    -6.429000000     2.884000000
H     4.335000000    -7.471000000     2.758000000
C     5.943000000    -6.003000000     2.832000000
H     6.751000000    -6.709000000     2.662000000
C     6.200000000    -4.659000000     2.896000000
H     7.175000000    -4.235000000     2.668000000
C     5.181000000    -3.762000000     3.015000000
O     5.591000000    -2.491000000     3.198000000
C     5.243000000    -1.393000000     2.491000000
C     5.237000000    -0.239000000     3.269000000
H     5.515000000    -0.254000000     4.320000000
C     5.005000000     0.949000000     2.642000000
O     4.945000000     2.032000000     3.441000000
C     4.837000000     3.341000000     2.943000000
C     3.642000000     4.033000000     3.122000000
H     2.810000000     3.636000000     3.699000000
C     5.928000000     3.933000000     2.221000000
H     6.900000000     3.459000000     2.116000000
C     5.745000000     5.158000000     1.570000000
H     6.578000000     5.635000000     1.060000000
C     4.538000000     5.850000000     1.789000000
H     4.460000000     6.812000000     1.289000000
C     3.517000000     5.268000000     2.511000000
O     2.347000000     5.976000000     2.742000000
C     1.168000000     5.820000000     2.021000000
C    -0.026000000     6.007000000     2.676000000
H     0.036000000     6.427000000     3.676000000
C    -1.205000000     5.733000000     2.018000000
O    -2.411000000     6.172000000     2.575000000
C    -3.604000000     5.592000000     2.174000000
C    -3.919000000     4.338000000     2.639000000
H    -3.237000000     3.871000000     3.344000000
C    -4.446000000     6.280000000     1.263000000
H    -4.245000000     7.252000000     0.821000000
C    -5.691000000     5.700000000     0.970000000
H    -6.328000000     6.173000000     0.226000000
C    -6.079000000     4.496000000     1.551000000
H    -6.988000000     3.956000000     1.298000000
C    -5.172000000     3.791000000     2.344000000
O    -5.444000000     2.555000000     2.800000000
C    -5.240000000     1.425000000     2.054000000
C    -5.734000000     0.246000000     2.533000000
H    -6.318000000     0.278000000     3.449000000
C    -5.585000000    -0.965000000     1.928000000
O    -6.181000000    -2.118000000     2.488000000
C    -5.548000000    -3.349000000     2.474000000
C    -6.170000000    -4.480000000     1.985000000
H    -7.210000000    -4.549000000     1.676000000
C    -5.482000000    -5.738000000     1.975000000
H    -6.017000000    -6.649000000     1.718000000
C    -4.179000000    -5.820000000     2.481000000
H    -3.645000000    -6.764000000     2.407000000
C    -3.579000000    -4.699000000     3.020000000
C    -4.272000000    -3.457000000     3.049000000
H    -3.765000000    -2.599000000     3.481000000
C    -1.421000000    -0.670000000     2.318000000
H    -1.865000000    -1.543000000     2.788000000
C    -0.649000000    -0.788000000     1.144000000
H    -0.710000000    -1.726000000     0.598000000
C     0.059000000     0.275000000     0.632000000
H     0.597000000     0.183000000    -0.272000000
C    -0.066000000     1.510000000     1.237000000
H     0.447000000     2.416000000     0.924000000
C    -0.719000000     1.624000000     2.436000000
H    -0.654000000     2.560000000     2.985000000
C    -1.359000000     0.575000000     2.978000000
C    -2.069000000     0.739000000     4.344000000
O    -2.205000000     1.853000000     4.832000000
O    -2.418000000    -0.209000000     4.999000000
O    -4.278000000    -2.410000000     8.088000000
H    -4.120000000    -2.010000000     8.944000000
H    -4.601000000    -3.288000000     8.291000000
O    -6.297000000     2.912000000     6.346000000
H    -5.432000000     2.582000000     6.103000000
H    -6.824000000     2.124000000     6.480000000
O     3.320000000    -0.909000000     7.429000000
H     3.754000000    -0.267000000     6.867000000
H     2.386000000    -0.777000000     7.267000000
O     0.608000000    -0.155000000     6.537000000
H     1.084000000     0.566000000     6.948000000
H    -0.242000000     0.220000000     6.306000000
O    -3.063000000     5.538000000     6.417000000
H    -2.739000000     6.354000000     6.797000000
H    -3.238000000     4.975000000     7.171000000
O    -2.928000000    -4.956000000     6.518000000
H    -2.422000000    -4.365000000     7.077000000
H    -2.817000000    -4.603000000     5.635000000
O    -5.478000000     5.435000000     5.503000000
H    -5.841000000     4.566000000     5.679000000
H    -4.559000000     5.366000000     5.761000000
O     1.587000000    -1.233000000     3.244000000
H     0.790000000    -0.882000000     2.845000000
H     2.236000000    -0.539000000     3.133000000
O     1.991000000     3.963000000     6.277000000
H     1.067000000     4.020000000     6.033000000
H     2.158000000     4.766000000     6.771000000
O     0.543000000    -2.870000000     5.331000000
H    -0.279000000    -2.476000000     5.620000000
H     0.928000000    -2.219000000     4.745000000
O     3.338000000     1.446000000     5.845000000
H     2.879000000     2.286000000     5.842000000
H     3.882000000     1.467000000     5.058000000
O    -7.364000000     0.179000000     5.924000000
H    -7.729000000    -0.323000000     6.653000000
H    -6.518000000    -0.234000000     5.749000000
O     0.173000000     2.275000000     8.297000000
H     0.244000000     3.054000000     7.746000000
H    -0.738000000     2.271000000     8.591000000
O    -0.844000000     3.924000000     6.023000000
H    -1.406000000     4.686000000     5.885000000
H    -1.339000000     3.191000000     5.657000000
O    -4.744000000    -1.075000000     5.598000000
H    -4.493000000    -1.474000000     6.431000000
H    -3.923000000    -0.737000000     5.238000000
O    -2.040000000    -2.289000000     6.625000000
H    -2.329000000    -1.641000000     5.983000000
H    -2.820000000    -2.471000000     7.149000000
O    -3.125000000     0.785000000     9.128000000
H    -3.643000000    -0.002000000     9.296000000
H    -3.410000000     1.080000000     8.264000000
O    -1.235000000    -3.356000000     8.927000000
H    -1.122000000    -3.072000000     8.020000000
H    -1.416000000    -2.550000000     9.410000000
O    -3.994000000     1.543000000     6.847000000
H    -3.363000000     1.750000000     6.158000000
H    -4.593000000     0.915000000     6.443000000
