215
-1462.08560
C     4.483000000    -0.638000000     2.110000000
H     4.348000000     0.402000000     1.823000000
C     4.424000000    -1.696000000     1.222000000
C     4.632000000    -3.026000000     1.620000000
H     4.384000000    -3.899000000     1.023000000
C     4.068000000    -1.304000000    -0.206000000
O     4.699000000    -0.145000000    -0.705000000
H     2.977000000    -1.177000000    -0.149000000
O     4.212000000    -2.414000000    -1.159000000
C     3.139000000    -2.664000000    -2.097000000
C     2.128000000    -3.600000000    -1.820000000
H     2.192000000    -4.176000000    -0.900000000
C     1.093000000    -3.794000000    -2.666000000
O     0.040000000    -4.619000000    -2.286000000
C     0.996000000    -3.027000000    -3.840000000
C    -0.213000000    -3.043000000    -4.803000000
H     0.008000000    -2.554000000    -5.754000000
C    -1.344000000    -2.205000000    -4.286000000
C    -1.354000000    -0.824000000    -4.714000000
H    -0.518000000    -0.528000000    -5.342000000
H    -0.543000000    -4.042000000    -5.096000000
C     2.018000000    -2.096000000    -4.163000000
H     1.914000000    -1.483000000    -5.055000000
C     3.092000000    -1.934000000    -3.288000000
C     4.041000000    -0.840000000    -3.589000000
H     4.055000000    -0.704000000    -4.672000000
H     5.085000000    -0.986000000    -3.303000000
C     3.670000000     0.470000000    -2.861000000
C     2.940000000     1.444000000    -3.573000000
H     2.735000000     1.265000000    -4.626000000
C     3.965000000     0.667000000    -1.486000000
C     3.642000000     1.813000000    -0.872000000
H     3.837000000     2.028000000     0.175000000
C     3.009000000     2.779000000    -1.593000000
O     2.779000000     4.032000000    -0.968000000
C     1.399000000     4.104000000    -0.513000000
C     1.349000000     4.619000000     0.918000000
C     0.203000000     5.224000000     1.378000000
H    -0.659000000     5.393000000     0.738000000
C     2.359000000     4.383000000     1.834000000
H     3.285000000     3.885000000     1.556000000
O     0.601000000     4.966000000    -1.394000000
H     0.969000000     3.091000000    -0.501000000
C     2.680000000     2.658000000    -2.901000000
C     1.925000000     3.785000000    -3.644000000
H     2.119000000     3.813000000    -4.718000000
H     2.228000000     4.767000000    -3.274000000
C     0.448000000     3.666000000    -3.404000000
C    -0.287000000     2.758000000    -4.129000000
H     0.302000000     2.274000000    -4.904000000
C    -0.161000000     4.256000000    -2.310000000
C    -1.488000000     3.989000000    -2.020000000
H    -1.922000000     4.389000000    -1.108000000
C    -2.234000000     3.011000000    -2.676000000
O    -3.463000000     2.599000000    -2.217000000
C    -3.509000000     1.229000000    -1.634000000
C    -4.254000000     1.283000000    -0.267000000
C    -4.173000000     2.370000000     0.658000000
H    -3.591000000     3.257000000     0.421000000
C    -5.170000000     0.231000000     0.096000000
H    -5.263000000    -0.627000000    -0.565000000
O    -4.077000000     0.376000000    -2.602000000
H    -2.486000000     0.849000000    -1.498000000
C    -1.667000000     2.458000000    -3.855000000
C    -2.474000000     1.484000000    -4.750000000
H    -2.172000000     1.523000000    -5.799000000
H    -3.505000000     1.827000000    -4.858000000
C    -2.384000000     0.038000000    -4.297000000
C    -3.251000000    -0.489000000    -3.301000000
C    -3.282000000    -1.814000000    -2.872000000
H    -3.915000000    -2.061000000    -2.023000000
C    -2.286000000    -2.658000000    -3.365000000
O    -2.198000000    -3.781000000    -2.602000000
C    -1.055000000    -3.838000000    -1.766000000
H    -0.628000000    -2.827000000    -1.687000000
C    -1.462000000    -4.339000000    -0.344000000
C    -0.535000000    -4.397000000     0.677000000
H     0.518000000    -4.235000000     0.461000000
C    -2.812000000    -4.609000000    -0.046000000
H    -3.537000000    -4.464000000    -0.843000000
C    -3.181000000    -5.066000000     1.192000000
O    -4.565000000    -5.247000000     1.439000000
C    -2.187000000    -5.265000000     2.201000000
H    -2.509000000    -5.679000000     3.153000000
C    -0.915000000    -4.863000000     1.976000000
O    -0.028000000    -5.019000000     3.038000000
C     1.277000000    -5.492000000     2.830000000
C     2.389000000    -4.951000000     3.523000000
H     2.317000000    -4.166000000     4.272000000
C     1.438000000    -6.505000000     1.907000000
H     0.551000000    -6.771000000     1.338000000
C     2.669000000    -7.088000000     1.688000000
H     2.751000000    -7.893000000     0.963000000
C     3.835000000    -6.500000000     2.274000000
H     4.848000000    -6.682000000     1.924000000
C     3.627000000    -5.473000000     3.182000000
O     4.768000000    -4.667000000     3.361000000
C     4.808000000    -3.329000000     2.962000000
C     5.043000000    -2.201000000     3.852000000
H     5.307000000    -2.355000000     4.895000000
C     4.816000000    -0.905000000     3.430000000
O     5.101000000     0.055000000     4.334000000
C     5.288000000     1.372000000     4.035000000
C     4.237000000     2.228000000     4.214000000
H     3.384000000     1.853000000     4.775000000
C     6.509000000     1.878000000     3.438000000
H     7.368000000     1.212000000     3.437000000
C     6.588000000     3.213000000     3.132000000
H     7.482000000     3.581000000     2.634000000
C     5.491000000     4.040000000     3.318000000
H     5.467000000     5.064000000     2.954000000
C     4.316000000     3.578000000     3.779000000
O     3.295000000     4.461000000     4.088000000
C     2.358000000     4.827000000     3.148000000
C     1.156000000     5.451000000     3.571000000
H     1.189000000     5.949000000     4.536000000
C     0.087000000     5.700000000     2.657000000
O    -0.961000000     6.468000000     3.100000000
C    -2.221000000     6.204000000     2.648000000
C    -2.702000000     4.920000000     2.951000000
H    -1.952000000     4.217000000     3.306000000
C    -3.022000000     7.143000000     2.087000000
H    -2.551000000     8.069000000     1.765000000
C    -4.372000000     6.840000000     1.849000000
H    -5.032000000     7.586000000     1.415000000
C    -4.872000000     5.587000000     2.122000000
H    -5.908000000     5.373000000     1.872000000
C    -4.036000000     4.621000000     2.619000000
O    -4.545000000     3.345000000     2.881000000
C    -4.843000000     2.425000000     1.901000000
C    -5.648000000     1.328000000     2.247000000
H    -6.029000000     1.316000000     3.264000000
C    -5.737000000     0.210000000     1.343000000
O    -6.559000000    -0.792000000     1.712000000
C    -6.434000000    -2.079000000     1.150000000
C    -7.443000000    -2.527000000     0.235000000
H    -8.281000000    -1.856000000     0.061000000
C    -7.555000000    -3.885000000    -0.113000000
H    -8.251000000    -4.216000000    -0.879000000
C    -6.551000000    -4.775000000     0.275000000
H    -6.490000000    -5.752000000    -0.199000000
C    -5.478000000    -4.294000000     1.025000000
C    -5.414000000    -2.997000000     1.540000000
H    -4.595000000    -2.658000000     2.170000000
C    -1.185000000    -1.279000000     1.732000000
H    -1.898000000    -2.079000000     1.917000000
C    -1.032000000    -0.869000000     0.418000000
H    -1.633000000    -1.243000000    -0.407000000
C     0.004000000     0.001000000     0.082000000
H     0.219000000     0.329000000    -0.952000000
C     0.874000000     0.420000000     1.113000000
H     1.680000000     1.037000000     0.726000000
C     0.690000000     0.076000000     2.416000000
H     1.286000000     0.509000000     3.215000000
C    -0.239000000    -0.953000000     2.720000000
C    -0.302000000    -1.421000000     4.159000000
O     0.439000000    -0.952000000     4.979000000
O    -1.037000000    -2.327000000     4.497000000
O    -3.723000000    -0.805000000     4.216000000
H    -3.122000000    -1.534000000     4.063000000
H    -4.394000000    -0.902000000     3.540000000
O    -5.982000000    -2.868000000     4.643000000
H    -5.150000000    -3.327000000     4.764000000
H    -6.646000000    -3.555000000     4.708000000
O    -0.959000000     1.102000000     8.281000000
H    -1.688000000     0.837000000     7.721000000
H    -0.230000000     1.240000000     7.676000000
O    -0.892000000    -1.745000000     7.336000000
H    -0.611000000    -1.599000000     6.433000000
H    -0.085000000    -1.701000000     7.849000000
O     3.062000000     0.422000000     9.431000000
H     2.431000000     1.141000000     9.472000000
H     3.232000000     0.305000000     8.497000000
O    -2.982000000     0.703000000     6.292000000
H    -2.966000000     0.276000000     5.435000000
H    -3.850000000     0.502000000     6.644000000
O     4.939000000    -3.769000000     6.837000000
H     4.122000000    -3.385000000     6.520000000
H     5.303000000    -3.107000000     7.425000000
O     3.551000000     0.159000000     6.688000000
H     4.449000000     0.483000000     6.757000000
H     3.621000000    -0.630000000     6.151000000
O     0.998000000     1.237000000     6.273000000
H     1.913000000     0.964000000     6.343000000
H     0.565000000     0.509000000     5.827000000
O     2.659000000    -2.354000000     5.760000000
H     2.148000000    -2.455000000     6.563000000
H     2.102000000    -1.830000000     5.185000000
O     1.500000000    -2.088000000     8.825000000
H     2.053000000    -1.323000000     8.986000000
H     2.058000000    -2.835000000     9.040000000
O     0.049000000    -4.353000000     5.906000000
H    -0.121000000    -4.859000000     5.112000000
H    -0.040000000    -3.440000000     5.632000000
O    -3.095000000    -2.851000000     8.201000000
H    -2.547000000    -2.074000000     8.091000000
H    -2.474000000    -3.579000000     8.241000000
O    -3.254000000    -3.392000000     5.351000000
H    -2.373000000    -3.102000000     5.113000000
H    -3.494000000    -2.840000000     6.096000000
O    -4.075000000    -5.540000000     6.944000000
H    -4.920000000    -5.568000000     7.392000000
H    -4.167000000    -4.833000000     6.305000000
O     2.029000000    -6.573000000     6.127000000
H     1.412000000    -7.051000000     5.572000000
H     1.691000000    -5.678000000     6.145000000
O    -0.940000000    -4.914000000     8.391000000
H    -0.555000000    -4.599000000     7.574000000
H    -1.450000000    -5.682000000     8.135000000
O    -1.458000000     3.289000000     6.165000000
H    -0.648000000     2.820000000     6.368000000
H    -2.066000000     2.605000000     5.884000000
O    -5.925000000     0.175000000     5.963000000
H    -6.659000000     0.457000000     5.417000000
H    -5.759000000    -0.729000000     5.694000000
