215
-1459.35509
C     4.920000000     1.020000000    -0.099000000
H     4.594000000     1.958000000    -0.539000000
C     4.717000000    -0.247000000    -0.629000000
C     5.143000000    -1.341000000     0.128000000
H     4.918000000    -2.373000000    -0.132000000
C     3.894000000    -0.402000000    -1.867000000
O     3.902000000     0.691000000    -2.819000000
H     2.828000000    -0.434000000    -1.600000000
O     4.159000000    -1.686000000    -2.517000000
C     3.037000000    -2.380000000    -2.967000000
C     2.634000000    -3.436000000    -2.114000000
H     3.212000000    -3.809000000    -1.273000000
C     1.341000000    -3.836000000    -2.194000000
O     0.977000000    -4.618000000    -1.105000000
C     0.489000000    -3.489000000    -3.272000000
C    -0.918000000    -4.070000000    -3.341000000
H    -1.176000000    -4.235000000    -4.389000000
C    -1.918000000    -3.245000000    -2.641000000
C    -2.735000000    -2.293000000    -3.250000000
H    -2.708000000    -2.172000000    -4.329000000
H    -0.882000000    -5.068000000    -2.899000000
C     0.916000000    -2.535000000    -4.147000000
H     0.368000000    -2.179000000    -5.016000000
C     2.186000000    -1.884000000    -4.000000000
C     2.587000000    -0.812000000    -4.924000000
H     2.272000000    -0.876000000    -5.968000000
H     3.673000000    -0.769000000    -5.024000000
C     2.019000000     0.489000000    -4.389000000
C     0.822000000     1.069000000    -4.915000000
H     0.308000000     0.642000000    -5.773000000
C     2.735000000     1.157000000    -3.312000000
C     2.284000000     2.347000000    -2.728000000
H     2.816000000     2.774000000    -1.882000000
C     1.088000000     2.837000000    -3.209000000
O     0.642000000     3.975000000    -2.580000000
C    -0.393000000     3.704000000    -1.644000000
C    -0.041000000     4.392000000    -0.286000000
C    -1.000000000     4.377000000     0.718000000
H    -1.993000000     4.012000000     0.468000000
C     1.254000000     4.867000000    -0.116000000
H     1.973000000     5.076000000    -0.904000000
O    -1.663000000     4.203000000    -2.257000000
H    -0.416000000     2.608000000    -1.546000000
C     0.347000000     2.211000000    -4.272000000
C    -0.964000000     2.817000000    -4.726000000
H    -1.054000000     2.533000000    -5.776000000
H    -0.871000000     3.903000000    -4.790000000
C    -2.087000000     2.380000000    -3.839000000
C    -2.827000000     1.186000000    -4.118000000
H    -2.572000000     0.603000000    -4.998000000
C    -2.483000000     3.161000000    -2.679000000
C    -3.514000000     2.752000000    -1.849000000
H    -3.808000000     3.427000000    -1.050000000
C    -4.154000000     1.532000000    -2.064000000
O    -5.028000000     1.056000000    -1.064000000
C    -4.469000000     0.036000000    -0.169000000
C    -4.836000000     0.320000000     1.277000000
C    -5.258000000     1.575000000     1.681000000
H    -5.186000000     2.422000000     1.003000000
C    -4.753000000    -0.748000000     2.246000000
H    -4.389000000    -1.730000000     1.955000000
O    -4.879000000    -1.316000000    -0.513000000
H    -3.379000000     0.127000000    -0.285000000
C    -3.846000000     0.743000000    -3.185000000
C    -4.553000000    -0.605000000    -3.382000000
H    -4.440000000    -0.817000000    -4.447000000
H    -5.597000000    -0.638000000    -3.062000000
C    -3.736000000    -1.606000000    -2.564000000
C    -3.985000000    -1.953000000    -1.288000000
C    -3.192000000    -2.942000000    -0.626000000
H    -3.453000000    -3.417000000     0.316000000
C    -2.164000000    -3.566000000    -1.287000000
O    -1.358000000    -4.376000000    -0.534000000
C     0.063000000    -4.064000000    -0.171000000
H     0.321000000    -3.002000000    -0.300000000
C     0.375000000    -4.276000000     1.315000000
C     1.659000000    -4.572000000     1.673000000
H     2.431000000    -4.711000000     0.921000000
C    -0.619000000    -4.084000000     2.289000000
H    -1.615000000    -3.790000000     1.967000000
C    -0.222000000    -4.218000000     3.650000000
O    -1.168000000    -4.237000000     4.648000000
C     1.056000000    -4.523000000     4.022000000
H     1.349000000    -4.676000000     5.058000000
C     1.979000000    -4.726000000     3.049000000
O     3.214000000    -5.212000000     3.435000000
C     4.358000000    -5.021000000     2.724000000
C     4.804000000    -3.716000000     2.636000000
H     4.329000000    -2.911000000     3.191000000
C     5.033000000    -6.081000000     2.125000000
H     4.655000000    -7.099000000     2.084000000
C     6.209000000    -5.811000000     1.390000000
H     6.682000000    -6.603000000     0.816000000
C     6.747000000    -4.521000000     1.290000000
H     7.707000000    -4.250000000     0.858000000
C     6.034000000    -3.495000000     1.984000000
O     6.467000000    -2.209000000     1.996000000
C     5.904000000    -1.094000000     1.328000000
C     6.117000000     0.132000000     1.767000000
H     6.522000000     0.279000000     2.765000000
C     5.644000000     1.201000000     1.077000000
O     5.760000000     2.410000000     1.718000000
C     5.452000000     3.597000000     1.012000000
C     4.348000000     4.274000000     1.388000000
H     3.775000000     3.825000000     2.195000000
C     6.240000000     4.178000000     0.024000000
H     7.158000000     3.719000000    -0.336000000
C     5.877000000     5.425000000    -0.533000000
H     6.441000000     5.885000000    -1.340000000
C     4.696000000     6.042000000    -0.166000000
H     4.461000000     6.959000000    -0.701000000
C     3.921000000     5.480000000     0.824000000
O     2.751000000     6.162000000     1.179000000
C     1.602000000     5.523000000     1.062000000
C     0.592000000     5.591000000     2.093000000
H     0.785000000     6.152000000     3.004000000
C    -0.692000000     4.994000000     1.911000000
O    -1.648000000     5.135000000     2.875000000
C    -2.994000000     5.218000000     2.711000000
C    -3.773000000     4.195000000     3.171000000
H    -3.263000000     3.365000000     3.655000000
C    -3.649000000     6.232000000     1.994000000
H    -2.947000000     6.930000000     1.546000000
C    -5.009000000     6.155000000     1.637000000
H    -5.461000000     6.962000000     1.065000000
C    -5.740000000     5.164000000     2.212000000
H    -6.751000000     4.985000000     1.855000000
C    -5.159000000     4.186000000     2.935000000
O    -5.840000000     3.108000000     3.441000000
C    -5.562000000     1.795000000     3.052000000
C    -5.679000000     0.734000000     3.922000000
H    -5.990000000     0.892000000     4.951000000
C    -5.256000000    -0.515000000     3.544000000
O    -5.046000000    -1.380000000     4.534000000
C    -4.423000000    -2.598000000     4.333000000
C    -5.135000000    -3.446000000     3.554000000
H    -6.195000000    -3.268000000     3.398000000
C    -4.590000000    -4.691000000     3.364000000
H    -5.244000000    -5.520000000     3.107000000
C    -3.280000000    -4.925000000     3.796000000
H    -2.921000000    -5.926000000     3.574000000
C    -2.495000000    -3.999000000     4.394000000
C    -3.062000000    -2.766000000     4.650000000
H    -2.486000000    -2.019000000     5.190000000
C    -0.945000000     0.803000000     2.934000000
H    -1.748000000     0.699000000     3.659000000
C    -0.841000000     0.138000000     1.697000000
H    -1.671000000    -0.500000000     1.402000000
C     0.190000000     0.440000000     0.811000000
H     0.333000000    -0.089000000    -0.109000000
C     1.115000000     1.482000000     1.091000000
H     1.884000000     1.818000000     0.401000000
C     1.015000000     2.094000000     2.366000000
H     1.725000000     2.843000000     2.707000000
C    -0.028000000     1.790000000     3.268000000
C    -0.138000000     2.522000000     4.560000000
O     0.824000000     3.189000000     5.012000000
O    -1.128000000     2.244000000     5.269000000
O     0.955000000    -1.753000000     6.218000000
H     0.915000000    -2.074000000     5.317000000
H     1.781000000    -2.097000000     6.559000000
O    -1.613000000     3.164000000     8.437000000
H    -1.254000000     3.760000000     9.095000000
H    -0.873000000     2.610000000     8.188000000
O    -4.510000000     7.191000000     5.129000000
H    -3.837000000     6.540000000     4.929000000
H    -4.128000000     7.725000000     5.825000000
O     0.591000000     1.786000000     7.618000000
H     0.507000000     2.169000000     6.744000000
H     1.320000000     1.170000000     7.540000000
O    -0.627000000     8.132000000     5.033000000
H    -0.457000000     7.287000000     5.450000000
H    -1.439000000     8.439000000     5.438000000
O     1.254000000     5.264000000     8.517000000
H     2.086000000     4.846000000     8.294000000
H     0.824000000     5.406000000     7.674000000
O    -3.411000000     2.053000000     6.971000000
H    -2.798000000     1.644000000     6.360000000
H    -2.855000000     2.557000000     7.566000000
O     1.892000000    -1.278000000     3.365000000
H     2.264000000    -0.397000000     3.323000000
H     1.114000000    -1.236000000     2.810000000
O     2.281000000     7.508000000     5.706000000
H     1.930000000     7.621000000     4.823000000
H     1.722000000     6.841000000     6.103000000
O     3.313000000     1.152000000     4.406000000
H     2.543000000     1.630000000     4.714000000
H     4.027000000     1.787000000     4.464000000
O     4.070000000    -1.127000000     5.857000000
H     3.700000000    -0.691000000     5.089000000
H     4.848000000    -1.575000000     5.527000000
O     3.304000000     4.105000000     4.880000000
H     2.421000000     3.735000000     4.890000000
H     3.613000000     4.012000000     5.781000000
O     0.548000000    -0.605000000     9.219000000
H     0.721000000    -1.098000000     8.417000000
H     0.801000000    -1.199000000     9.925000000
O     4.242000000     3.205000000     7.213000000
H     3.901000000     2.353000000     7.486000000
H     4.183000000     3.749000000     7.998000000
O    -1.271000000    -0.470000000     6.746000000
H    -1.204000000     0.485000000     6.738000000
H    -0.370000000    -0.774000000     6.640000000
O     4.706000000     6.341000000     5.685000000
H     3.913000000     6.840000000     5.882000000
H     4.396000000     5.582000000     5.191000000
O     3.103000000     0.423000000     7.718000000
H     3.380000000    -0.148000000     7.002000000
H     3.530000000     0.059000000     8.494000000
O    -2.641000000     4.992000000     5.927000000
H    -2.707000000     4.341000000     6.625000000
H    -2.353000000     4.495000000     5.161000000
O     0.025000000     5.484000000     6.185000000
H     0.254000000     4.759000000     5.604000000
H    -0.913000000     5.380000000     6.341000000
