215
-1420.98171
C     5.034000000     1.083000000     0.390000000
H     4.791000000     1.941000000    -0.231000000
C     4.824000000    -0.177000000    -0.242000000
C     5.167000000    -1.261000000     0.576000000
H     5.084000000    -2.254000000     0.142000000
C     3.985000000    -0.338000000    -1.506000000
O     4.180000000     0.846000000    -2.358000000
H     2.954000000    -0.381000000    -1.124000000
O     4.386000000    -1.538000000    -2.283000000
C     3.320000000    -2.233000000    -2.719000000
C     2.778000000    -3.229000000    -1.905000000
H     3.398000000    -3.412000000    -1.031000000
C     1.674000000    -3.943000000    -2.215000000
O     1.028000000    -4.716000000    -1.244000000
C     0.962000000    -3.532000000    -3.344000000
C    -0.412000000    -4.070000000    -3.681000000
H    -0.648000000    -4.287000000    -4.725000000
C    -1.515000000    -3.281000000    -3.021000000
C    -2.161000000    -2.302000000    -3.747000000
H    -1.804000000    -2.038000000    -4.739000000
H    -0.362000000    -5.058000000    -3.217000000
C     1.408000000    -2.508000000    -4.156000000
H     0.796000000    -2.130000000    -4.971000000
C     2.592000000    -1.839000000    -3.825000000
C     3.128000000    -0.643000000    -4.678000000
H     3.015000000    -0.811000000    -5.751000000
H     4.208000000    -0.667000000    -4.518000000
C     2.561000000     0.720000000    -4.235000000
C     1.520000000     1.430000000    -4.947000000
H     1.216000000     0.918000000    -5.856000000
C     3.017000000     1.213000000    -2.994000000
C     2.565000000     2.384000000    -2.524000000
H     2.831000000     2.692000000    -1.516000000
C     1.453000000     2.949000000    -3.108000000
O     1.066000000     4.114000000    -2.484000000
C    -0.126000000     4.042000000    -1.671000000
C    -0.063000000     4.786000000    -0.352000000
C    -1.267000000     5.351000000     0.144000000
H    -2.178000000     5.407000000    -0.446000000
C     1.148000000     4.709000000     0.423000000
H     2.068000000     4.273000000     0.040000000
O    -1.235000000     4.289000000    -2.567000000
H    -0.325000000     3.038000000    -1.269000000
C     0.906000000     2.470000000    -4.326000000
C    -0.376000000     2.963000000    -4.970000000
H    -0.332000000     2.463000000    -5.939000000
H    -0.432000000     4.044000000    -5.117000000
C    -1.549000000     2.513000000    -4.117000000
C    -2.299000000     1.404000000    -4.488000000
H    -1.924000000     0.777000000    -5.293000000
C    -2.017000000     3.204000000    -3.007000000
C    -3.063000000     2.712000000    -2.200000000
H    -3.356000000     3.255000000    -1.305000000
C    -3.747000000     1.513000000    -2.476000000
O    -4.728000000     1.047000000    -1.579000000
C    -4.223000000     0.063000000    -0.760000000
C    -4.649000000     0.274000000     0.651000000
C    -4.630000000     1.525000000     1.315000000
H    -4.536000000     2.352000000     0.615000000
C    -4.864000000    -0.877000000     1.425000000
H    -4.903000000    -1.871000000     0.987000000
O    -4.600000000    -1.216000000    -1.214000000
H    -3.130000000     0.187000000    -0.742000000
C    -3.339000000     0.896000000    -3.650000000
C    -3.890000000    -0.513000000    -4.005000000
H    -3.770000000    -0.801000000    -5.051000000
H    -4.968000000    -0.637000000    -3.877000000
C    -3.243000000    -1.633000000    -3.186000000
C    -3.624000000    -1.971000000    -1.877000000
C    -2.984000000    -2.934000000    -1.139000000
H    -3.251000000    -3.128000000    -0.103000000
C    -1.866000000    -3.539000000    -1.680000000
O    -1.200000000    -4.441000000    -0.867000000
C     0.122000000    -4.002000000    -0.430000000
H     0.288000000    -2.934000000    -0.636000000
C     0.255000000    -4.399000000     1.015000000
C     1.497000000    -4.861000000     1.460000000
H     2.323000000    -4.824000000     0.755000000
C    -0.805000000    -4.357000000     1.916000000
H    -1.697000000    -3.868000000     1.532000000
C    -0.628000000    -4.435000000     3.277000000
O    -1.599000000    -4.014000000     4.203000000
C     0.627000000    -4.936000000     3.669000000
H     0.745000000    -4.889000000     4.748000000
C     1.658000000    -5.275000000     2.786000000
O     2.844000000    -5.729000000     3.315000000
C     4.075000000    -5.266000000     2.862000000
C     4.356000000    -3.897000000     2.838000000
H     3.517000000    -3.254000000     3.092000000
C     5.035000000    -6.155000000     2.494000000
H     4.782000000    -7.210000000     2.575000000
C     6.288000000    -5.755000000     2.056000000
H     6.984000000    -6.552000000     1.805000000
C     6.588000000    -4.446000000     2.069000000
H     7.615000000    -4.174000000     1.839000000
C     5.631000000    -3.483000000     2.456000000
O     5.966000000    -2.204000000     2.650000000
C     5.667000000    -1.087000000     1.837000000
C     5.909000000     0.133000000     2.370000000
H     6.317000000     0.155000000     3.378000000
C     5.624000000     1.280000000     1.643000000
O     6.092000000     2.551000000     2.039000000
C     5.394000000     3.758000000     1.901000000
C     4.138000000     3.852000000     2.426000000
H     3.662000000     3.090000000     3.037000000
C     5.977000000     4.904000000     1.321000000
H     7.014000000     4.865000000     0.997000000
C     5.201000000     6.079000000     1.112000000
H     5.620000000     6.996000000     0.708000000
C     3.928000000     6.116000000     1.641000000
H     3.341000000     7.028000000     1.556000000
C     3.462000000     5.047000000     2.265000000
O     2.138000000     5.043000000     2.629000000
C     1.101000000     5.244000000     1.730000000
C    -0.135000000     5.703000000     2.199000000
H    -0.163000000     6.033000000     3.235000000
C    -1.288000000     5.767000000     1.478000000
O    -2.427000000     6.328000000     2.104000000
C    -3.685000000     5.819000000     2.082000000
C    -3.972000000     4.636000000     2.822000000
H    -3.183000000     4.183000000     3.416000000
C    -4.674000000     6.355000000     1.315000000
H    -4.387000000     7.201000000     0.696000000
C    -5.933000000     5.863000000     1.113000000
H    -6.572000000     6.413000000     0.427000000
C    -6.138000000     4.591000000     1.796000000
H    -6.996000000     3.962000000     1.577000000
C    -5.215000000     4.072000000     2.673000000
O    -5.479000000     2.776000000     3.204000000
C    -5.172000000     1.604000000     2.582000000
C    -5.543000000     0.434000000     3.260000000
H    -5.916000000     0.606000000     4.267000000
C    -5.478000000    -0.747000000     2.664000000
O    -5.783000000    -1.848000000     3.443000000
C    -5.035000000    -2.975000000     3.505000000
C    -5.686000000    -4.198000000     3.573000000
H    -6.764000000    -4.245000000     3.447000000
C    -4.992000000    -5.352000000     3.893000000
H    -5.439000000    -6.340000000     3.967000000
C    -3.605000000    -5.266000000     3.971000000
H    -3.030000000    -6.170000000     4.155000000
C    -2.952000000    -4.054000000     3.848000000
C    -3.672000000    -2.909000000     3.795000000
H    -3.197000000    -1.950000000     3.981000000
C    -1.001000000     0.410000000     2.579000000
H    -1.719000000    -0.071000000     3.238000000
C    -1.104000000     0.022000000     1.252000000
H    -1.858000000    -0.729000000     1.032000000
C    -0.284000000     0.441000000     0.247000000
H    -0.424000000    -0.033000000    -0.708000000
C     0.864000000     1.117000000     0.641000000
H     1.605000000     1.325000000    -0.126000000
C     1.017000000     1.432000000     1.999000000
H     1.892000000     1.963000000     2.366000000
C     0.023000000     1.221000000     2.945000000
C     0.036000000     1.624000000     4.384000000
O     0.952000000     2.314000000     4.753000000
O    -0.855000000     1.352000000     5.146000000
O     1.401000000    -1.961000000     5.812000000
H     1.538000000    -1.684000000     4.906000000
H     2.079000000    -2.618000000     5.967000000
O    -2.694000000     7.457000000     5.047000000
H    -2.269000000     6.701000000     5.451000000
H    -2.522000000     8.180000000     5.650000000
O    -1.769000000     2.914000000     7.470000000
H    -1.882000000     2.324000000     6.725000000
H    -0.885000000     2.731000000     7.788000000
O     1.667000000     7.394000000     6.115000000
H     0.752000000     7.640000000     6.251000000
H     1.625000000     6.595000000     5.590000000
O    -3.625000000     2.173000000     5.304000000
H    -3.942000000     1.401000000     5.773000000
H    -2.742000000     1.936000000     5.021000000
O     2.013000000    -1.239000000     3.316000000
H     2.648000000    -0.554000000     3.526000000
H     1.597000000    -0.940000000     2.507000000
O     4.254000000     0.899000000     9.012000000
H     4.937000000     0.228000000     9.030000000
H     3.499000000     0.462000000     8.617000000
O     3.236000000     1.077000000     4.353000000
H     2.350000000     1.186000000     4.699000000
H     3.726000000     1.816000000     4.714000000
O     1.506000000     0.695000000     6.916000000
H     1.675000000    -0.188000000     6.586000000
H     1.242000000     1.193000000     6.143000000
O     4.794000000     3.112000000     5.552000000
H     4.937000000     3.926000000     5.069000000
H     4.676000000     3.391000000     6.460000000
O     1.474000000     4.675000000     5.492000000
H     1.314000000     3.853000000     5.029000000
H     2.427000000     4.761000000     5.506000000
O     0.173000000    -2.991000000     8.650000000
H     0.228000000    -2.093000000     8.325000000
H     0.862000000    -3.050000000     9.312000000
O     3.010000000     3.834000000     7.781000000
H     2.780000000     3.034000000     7.309000000
H     2.320000000     4.456000000     7.549000000
O    -1.572000000    -1.090000000     6.026000000
H    -1.252000000    -0.248000000     5.703000000
H    -0.873000000    -1.709000000     5.816000000
O     0.339000000     4.927000000     8.137000000
H     0.239000000     5.100000000     7.201000000
H    -0.313000000     5.489000000     8.555000000
O    -4.563000000     4.768000000     6.041000000
H    -3.829000000     5.384000000     6.033000000
H    -4.170000000     3.925000000     5.815000000
O    -4.022000000    -2.458000000     6.533000000
H    -3.713000000    -3.174000000     7.089000000
H    -3.224000000    -2.006000000     6.260000000
O     0.333000000     1.580000000     9.416000000
H     0.808000000     1.342000000     8.620000000
H     0.994000000     1.984000000     9.978000000
O    -1.514000000     5.263000000     5.971000000
H    -0.801000000     4.870000000     5.469000000
H    -1.797000000     4.569000000     6.567000000
