215
-1455.05287
C     3.796000000     1.729000000     0.606000000
H     3.041000000     2.360000000     0.144000000
C     4.325000000     0.647000000    -0.178000000
C     5.174000000    -0.288000000     0.493000000
H     5.399000000    -1.236000000     0.011000000
C     3.757000000     0.351000000    -1.609000000
O     3.847000000     1.484000000    -2.459000000
H     2.684000000     0.114000000    -1.556000000
O     4.425000000    -0.712000000    -2.317000000
C     3.580000000    -1.641000000    -2.771000000
C     3.223000000    -2.634000000    -1.817000000
H     3.728000000    -2.585000000    -0.856000000
C     2.203000000    -3.552000000    -2.134000000
O     1.862000000    -4.402000000    -1.179000000
C     1.452000000    -3.515000000    -3.326000000
C     0.271000000    -4.336000000    -3.632000000
H     0.158000000    -4.475000000    -4.709000000
C    -0.950000000    -3.735000000    -2.925000000
C    -1.768000000    -2.907000000    -3.622000000
H    -1.557000000    -2.509000000    -4.611000000
H     0.416000000    -5.378000000    -3.339000000
C     1.722000000    -2.449000000    -4.207000000
H     1.094000000    -2.271000000    -5.077000000
C     2.813000000    -1.579000000    -3.918000000
C     3.015000000    -0.380000000    -4.790000000
H     2.672000000    -0.593000000    -5.804000000
H     4.049000000    -0.048000000    -4.902000000
C     2.307000000     0.881000000    -4.293000000
C     1.075000000     1.218000000    -4.881000000
H     0.625000000     0.551000000    -5.612000000
C     2.831000000     1.775000000    -3.351000000
C     2.092000000     2.860000000    -2.963000000
H     2.517000000     3.477000000    -2.175000000
C     0.868000000     3.138000000    -3.575000000
O     0.225000000     4.299000000    -3.142000000
C    -0.924000000     4.098000000    -2.283000000
C    -0.935000000     5.105000000    -1.107000000
C    -2.140000000     5.333000000    -0.441000000
H    -3.086000000     4.896000000    -0.750000000
C     0.211000000     5.708000000    -0.591000000
H     1.116000000     5.497000000    -1.155000000
O    -2.200000000     4.072000000    -2.956000000
H    -0.662000000     3.145000000    -1.800000000
C     0.323000000     2.332000000    -4.531000000
C    -1.000000000     2.471000000    -5.203000000
H    -1.204000000     1.899000000    -6.111000000
H    -1.270000000     3.479000000    -5.524000000
C    -2.064000000     1.960000000    -4.257000000
C    -2.532000000     0.642000000    -4.395000000
H    -2.210000000     0.026000000    -5.230000000
C    -2.637000000     2.770000000    -3.305000000
C    -3.354000000     2.106000000    -2.328000000
H    -3.574000000     2.697000000    -1.442000000
C    -3.760000000     0.745000000    -2.352000000
O    -4.428000000     0.227000000    -1.228000000
C    -3.790000000    -0.676000000    -0.358000000
C    -4.206000000    -0.496000000     1.082000000
C    -4.437000000     0.807000000     1.512000000
H    -4.453000000     1.673000000     0.856000000
C    -4.344000000    -1.646000000     1.888000000
H    -4.320000000    -2.672000000     1.531000000
O    -4.134000000    -1.993000000    -0.790000000
H    -2.717000000    -0.473000000    -0.489000000
C    -3.406000000     0.012000000    -3.496000000
C    -3.901000000    -1.434000000    -3.644000000
H    -4.064000000    -1.729000000    -4.682000000
H    -4.873000000    -1.607000000    -3.177000000
C    -2.927000000    -2.348000000    -2.900000000
C    -3.170000000    -2.668000000    -1.534000000
C    -2.335000000    -3.535000000    -0.914000000
H    -2.426000000    -3.654000000     0.162000000
C    -1.235000000    -4.079000000    -1.595000000
O    -0.405000000    -4.862000000    -0.852000000
C     0.795000000    -4.189000000    -0.289000000
H     0.587000000    -3.109000000    -0.287000000
C     0.966000000    -4.602000000     1.133000000
C     2.270000000    -4.536000000     1.685000000
H     3.178000000    -4.331000000     1.124000000
C    -0.197000000    -4.843000000     1.983000000
H    -1.206000000    -4.913000000     1.585000000
C     0.046000000    -5.138000000     3.362000000
O    -1.004000000    -5.195000000     4.293000000
C     1.367000000    -5.116000000     3.833000000
H     1.589000000    -5.320000000     4.877000000
C     2.463000000    -4.760000000     3.055000000
O     3.701000000    -4.750000000     3.601000000
C     4.846000000    -4.239000000     3.075000000
C     4.960000000    -2.852000000     2.982000000
H     4.151000000    -2.173000000     3.239000000
C     5.960000000    -4.996000000     2.818000000
H     5.923000000    -6.078000000     2.911000000
C     7.150000000    -4.479000000     2.372000000
H     7.890000000    -5.223000000     2.089000000
C     7.286000000    -3.060000000     2.266000000
H     8.224000000    -2.546000000     2.067000000
C     6.158000000    -2.255000000     2.605000000
O     6.249000000    -0.881000000     2.570000000
C     5.488000000    -0.039000000     1.842000000
C     5.080000000     1.058000000     2.530000000
H     5.325000000     1.128000000     3.587000000
C     4.208000000     1.951000000     1.871000000
O     3.717000000     3.058000000     2.492000000
C     3.797000000     4.312000000     1.990000000
C     2.568000000     4.935000000     1.717000000
H     1.672000000     4.415000000     2.044000000
C     4.987000000     4.912000000     1.694000000
H     5.888000000     4.390000000     2.007000000
C     5.014000000     6.122000000     1.028000000
H     5.906000000     6.577000000     0.603000000
C     3.825000000     6.723000000     0.760000000
H     3.732000000     7.664000000     0.224000000
C     2.573000000     6.172000000     1.114000000
O     1.430000000     6.897000000     1.027000000
C     0.255000000     6.347000000     0.607000000
C    -0.918000000     6.664000000     1.296000000
H    -0.749000000     7.311000000     2.152000000
C    -2.115000000     6.091000000     0.788000000
O    -3.294000000     6.488000000     1.445000000
C    -4.205000000     5.523000000     1.822000000
C    -3.918000000     4.328000000     2.497000000
H    -2.888000000     4.066000000     2.727000000
C    -5.497000000     5.793000000     1.534000000
H    -5.720000000     6.746000000     1.062000000
C    -6.511000000     4.932000000     1.944000000
H    -7.562000000     5.162000000     1.787000000
C    -6.202000000     3.789000000     2.666000000
H    -7.019000000     3.205000000     3.081000000
C    -4.921000000     3.434000000     2.847000000
O    -4.684000000     2.184000000     3.550000000
C    -4.670000000     0.951000000     2.870000000
C    -4.735000000    -0.151000000     3.695000000
H    -5.063000000    -0.028000000     4.724000000
C    -4.622000000    -1.438000000     3.279000000
O    -4.864000000    -2.498000000     4.184000000
C    -4.249000000    -3.694000000     4.090000000
C    -4.992000000    -4.784000000     3.707000000
H    -6.013000000    -4.604000000     3.377000000
C    -4.479000000    -6.025000000     3.654000000
H    -5.101000000    -6.821000000     3.252000000
C    -3.126000000    -6.194000000     3.824000000
H    -2.547000000    -7.076000000     3.564000000
C    -2.340000000    -5.063000000     4.180000000
C    -2.933000000    -3.855000000     4.477000000
H    -2.310000000    -2.997000000     4.717000000
C    -0.943000000     0.076000000     1.629000000
H    -1.418000000    -0.150000000     2.580000000
C    -0.622000000    -0.896000000     0.738000000
H    -1.032000000    -1.872000000     0.987000000
C    -0.059000000    -0.586000000    -0.516000000
H     0.004000000    -1.344000000    -1.329000000
C     0.268000000     0.729000000    -0.754000000
H     0.855000000     0.912000000    -1.651000000
C    -0.011000000     1.698000000     0.153000000
H     0.439000000     2.656000000    -0.095000000
C    -0.543000000     1.421000000     1.373000000
C    -0.659000000     2.383000000     2.565000000
O    -0.502000000     3.566000000     2.353000000
O    -0.917000000     1.969000000     3.697000000
O     0.257000000    -2.662000000     6.574000000
H     0.980000000    -2.849000000     7.172000000
H     0.637000000    -2.086000000     5.910000000
O     3.532000000    -0.738000000     6.510000000
H     2.810000000    -0.498000000     5.930000000
H     3.771000000     0.080000000     6.946000000
O    -4.242000000     1.833000000     6.340000000
H    -4.504000000     2.256000000     5.523000000
H    -3.546000000     1.228000000     6.083000000
O    -5.683000000     6.563000000     5.226000000
H    -4.727000000     6.519000000     5.205000000
H    -5.944000000     6.530000000     4.305000000
O     2.097000000    -1.076000000     1.986000000
H     2.660000000    -0.320000000     1.819000000
H     1.522000000    -1.120000000     1.222000000
O     4.246000000     1.621000000     7.383000000
H     3.421000000     2.084000000     7.530000000
H     4.903000000     2.316000000     7.326000000
O     1.045000000     1.309000000     5.192000000
H     0.323000000     1.614000000     4.643000000
H     1.504000000     2.109000000     5.449000000
O    -0.956000000     3.624000000     9.301000000
H    -0.374000000     3.085000000     8.765000000
H    -1.834000000     3.429000000     8.973000000
O     0.627000000     1.159000000     8.192000000
H     0.906000000     1.106000000     7.278000000
H     1.401000000     0.904000000     8.694000000
O     1.387000000    -1.185000000     4.674000000
H     1.529000000    -1.273000000     3.731000000
H     1.085000000    -0.284000000     4.788000000
O    -0.477000000     5.201000000     4.444000000
H    -0.742000000     4.883000000     3.581000000
H     0.298000000     4.684000000     4.663000000
O    -2.319000000     0.202000000     5.426000000
H    -1.542000000     0.407000000     5.945000000
H    -2.068000000     0.411000000     4.526000000
O    -0.578000000     5.893000000     7.891000000
H    -1.012000000     5.848000000     8.743000000
H    -1.210000000     5.512000000     7.281000000
O    -2.448000000    -2.163000000     7.318000000
H    -1.570000000    -2.377000000     7.001000000
H    -2.463000000    -1.206000000     7.352000000
O     0.980000000     7.398000000     6.324000000
H     0.521000000     6.774000000     6.886000000
H     0.598000000     7.266000000     5.457000000
O     2.352000000     3.856000000     5.683000000
H     3.094000000     3.627000000     5.124000000
H     2.686000000     4.548000000     6.254000000
O    -1.958000000     0.375000000     8.601000000
H    -2.560000000     1.071000000     8.865000000
H    -1.093000000     0.782000000     8.632000000
O    -1.372000000     3.150000000     6.319000000
H    -1.181000000     2.991000000     5.395000000
H    -2.328000000     3.187000000     6.363000000
O    -2.876000000     6.107000000     5.712000000
H    -2.498000000     6.960000000     5.501000000
H    -2.255000000     5.474000000     5.352000000
