215
-1482.93465
C    -0.971000000     1.788000000    -5.307000000
H    -1.501000000     0.840000000    -5.310000000
C     0.303000000     1.806000000    -4.751000000
C     0.886000000     3.058000000    -4.495000000
H     1.826000000     3.099000000    -3.950000000
C     0.961000000     0.516000000    -4.202000000
O     0.665000000    -0.666000000    -4.936000000
H     0.491000000     0.248000000    -3.245000000
O     2.359000000     0.636000000    -4.190000000
C     3.143000000     0.093000000    -3.213000000
C     3.526000000     1.003000000    -2.223000000
H     3.157000000     2.025000000    -2.260000000
C     4.166000000     0.499000000    -1.109000000
O     4.463000000     1.377000000    -0.066000000
C     4.630000000    -0.824000000    -1.012000000
C     5.409000000    -1.385000000     0.221000000
H     5.976000000    -2.306000000     0.072000000
C     4.560000000    -1.696000000     1.378000000
C     3.867000000    -2.965000000     1.420000000
H     4.035000000    -3.604000000     0.557000000
H     6.095000000    -0.574000000     0.477000000
C     4.248000000    -1.720000000    -2.010000000
H     4.676000000    -2.719000000    -1.994000000
C     3.433000000    -1.295000000    -3.013000000
C     2.957000000    -2.283000000    -4.073000000
H     3.604000000    -3.163000000    -4.047000000
H     2.925000000    -1.773000000    -5.038000000
C     1.502000000    -2.549000000    -3.750000000
C     1.187000000    -3.602000000    -2.901000000
H     1.971000000    -4.215000000    -2.465000000
C     0.442000000    -1.798000000    -4.300000000
C    -0.884000000    -2.043000000    -3.946000000
H    -1.574000000    -1.356000000    -4.429000000
C    -1.173000000    -3.115000000    -3.139000000
O    -2.474000000    -3.161000000    -2.686000000
C    -2.722000000    -2.821000000    -1.316000000
C    -3.971000000    -2.014000000    -1.230000000
C    -4.672000000    -2.023000000    -0.026000000
H    -4.245000000    -2.545000000     0.826000000
C    -4.339000000    -1.187000000    -2.251000000
H    -3.752000000    -1.042000000    -3.154000000
O    -2.734000000    -4.067000000    -0.548000000
H    -1.891000000    -2.160000000    -1.027000000
C    -0.151000000    -3.883000000    -2.611000000
C    -0.338000000    -5.151000000    -1.793000000
H     0.441000000    -5.889000000    -1.995000000
H    -1.293000000    -5.624000000    -2.032000000
C    -0.421000000    -4.838000000    -0.326000000
C     0.785000000    -4.810000000     0.376000000
H     1.705000000    -5.079000000    -0.136000000
C    -1.577000000    -4.264000000     0.233000000
C    -1.538000000    -3.845000000     1.610000000
H    -2.444000000    -3.472000000     2.081000000
C    -0.357000000    -3.941000000     2.322000000
O    -0.342000000    -3.517000000     3.626000000
C     0.347000000    -2.275000000     3.895000000
C    -0.444000000    -1.470000000     4.910000000
C    -1.815000000    -1.607000000     4.805000000
H    -2.328000000    -2.228000000     4.075000000
C     0.103000000    -0.579000000     5.798000000
H     1.181000000    -0.443000000     5.796000000
O     1.675000000    -2.504000000     4.332000000
H     0.365000000    -1.710000000     2.951000000
C     0.810000000    -4.418000000     1.689000000
C     2.069000000    -4.549000000     2.483000000
H     2.600000000    -5.408000000     2.067000000
H     1.861000000    -4.977000000     3.466000000
C     2.962000000    -3.311000000     2.460000000
C     2.695000000    -2.295000000     3.357000000
C     3.160000000    -1.044000000     3.262000000
H     2.676000000    -0.226000000     3.789000000
C     4.026000000    -0.719000000     2.243000000
O     4.309000000     0.683000000     2.121000000
C     3.617000000     1.318000000     1.048000000
H     2.811000000     0.665000000     0.679000000
C     3.060000000     2.681000000     1.460000000
C     3.110000000     3.723000000     0.552000000
H     3.579000000     3.609000000    -0.422000000
C     2.535000000     2.951000000     2.742000000
H     2.612000000     2.080000000     3.388000000
C     2.080000000     4.243000000     3.100000000
O     1.550000000     4.534000000     4.369000000
C     2.124000000     5.240000000     2.117000000
H     1.640000000     6.203000000     2.255000000
C     2.577000000     4.970000000     0.855000000
O     2.622000000     5.986000000    -0.130000000
C     2.703000000     5.700000000    -1.527000000
C     1.677000000     5.594000000    -2.456000000
H     0.700000000     5.586000000    -1.979000000
C     4.042000000     5.800000000    -2.007000000
H     4.883000000     5.936000000    -1.332000000
C     4.279000000     5.949000000    -3.406000000
H     5.295000000     6.105000000    -3.759000000
C     3.232000000     5.969000000    -4.327000000
H     3.423000000     6.028000000    -5.395000000
C     1.904000000     5.713000000    -3.822000000
O     0.858000000     5.536000000    -4.773000000
C     0.297000000     4.243000000    -4.927000000
C    -0.917000000     4.188000000    -5.668000000
H    -1.387000000     5.071000000    -6.093000000
C    -1.564000000     2.956000000    -5.767000000
O    -2.854000000     2.974000000    -6.245000000
C    -3.749000000     1.918000000    -5.965000000
C    -4.311000000     1.786000000    -4.708000000
H    -4.063000000     2.523000000    -3.948000000
C    -4.089000000     0.996000000    -6.915000000
H    -3.850000000     1.107000000    -7.970000000
C    -4.859000000    -0.130000000    -6.608000000
H    -5.099000000    -0.829000000    -7.405000000
C    -5.373000000    -0.323000000    -5.318000000
H    -5.972000000    -1.196000000    -5.074000000
C    -5.076000000     0.668000000    -4.355000000
O    -5.714000000     0.625000000    -3.165000000
C    -5.430000000    -0.343000000    -2.135000000
C    -6.130000000    -0.315000000    -0.975000000
H    -6.989000000     0.339000000    -0.849000000
C    -5.784000000    -1.165000000     0.119000000
O    -6.468000000    -1.059000000     1.262000000
C    -6.151000000    -1.548000000     2.501000000
C    -5.270000000    -0.858000000     3.326000000
H    -4.814000000     0.087000000     3.042000000
C    -6.612000000    -2.784000000     2.965000000
H    -7.227000000    -3.431000000     2.344000000
C    -6.216000000    -3.335000000     4.141000000
H    -6.562000000    -4.325000000     4.425000000
C    -5.290000000    -2.604000000     4.950000000
H    -4.965000000    -3.008000000     5.906000000
C    -4.833000000    -1.409000000     4.509000000
O    -4.012000000    -0.626000000     5.375000000
C    -2.624000000    -0.692000000     5.477000000
C    -2.077000000     0.125000000     6.445000000
H    -2.669000000     0.842000000     7.008000000
C    -0.676000000     0.262000000     6.548000000
O    -0.171000000     1.205000000     7.401000000
C     0.918000000     1.980000000     7.003000000
C     2.117000000     2.117000000     7.779000000
H     2.302000000     1.568000000     8.699000000
C     3.125000000     2.938000000     7.268000000
H     4.082000000     3.088000000     7.761000000
C     2.951000000     3.725000000     6.081000000
H     3.763000000     4.328000000     5.684000000
C     1.684000000     3.693000000     5.469000000
C     0.679000000     2.844000000     5.908000000
H    -0.220000000     2.764000000     5.302000000
C    -1.863000000     1.004000000     1.126000000
H    -2.697000000     1.081000000     1.818000000
C    -1.421000000    -0.299000000     0.987000000
H    -1.956000000    -1.076000000     1.527000000
C    -0.315000000    -0.556000000     0.222000000
H     0.150000000    -1.524000000     0.269000000
C     0.329000000     0.491000000    -0.397000000
H     1.164000000     0.258000000    -1.053000000
C    -0.150000000     1.814000000    -0.382000000
H     0.430000000     2.569000000    -0.906000000
C    -1.196000000     2.091000000     0.531000000
C    -1.710000000     3.441000000     0.757000000
O    -1.279000000     4.390000000     0.139000000
O    -2.757000000     3.614000000     1.422000000
O    -7.138000000     4.471000000     2.550000000
H    -6.577000000     5.235000000     2.684000000
H    -7.873000000     4.801000000     2.034000000
O    -7.429000000     5.293000000    -0.437000000
H    -8.255000000     4.875000000    -0.678000000
H    -6.767000000     4.827000000    -0.948000000
O    -5.841000000     6.964000000     2.262000000
H    -6.342000000     7.308000000     1.522000000
H    -4.934000000     6.960000000     1.956000000
O    -2.427000000     4.213000000     6.621000000
H    -3.219000000     4.698000000     6.852000000
H    -2.546000000     3.985000000     5.699000000
O     1.108000000     8.765000000     0.493000000
H     1.259000000     9.683000000     0.715000000
H     0.206000000     8.597000000     0.767000000
O    -0.914000000     7.025000000     1.243000000
H     0.020000000     7.166000000     1.401000000
H    -0.979000000     6.101000000     1.002000000
O    -1.822000000     6.042000000    -1.922000000
H    -2.734000000     5.777000000    -2.044000000
H    -1.472000000     5.411000000    -1.293000000
O    -6.136000000     7.343000000    -2.440000000
H    -5.317000000     6.860000000    -2.335000000
H    -6.757000000     6.888000000    -1.872000000
O    -3.461000000     6.029000000     1.368000000
H    -2.665000000     6.554000000     1.450000000
H    -3.151000000     5.124000000     1.364000000
O    -7.678000000     1.432000000     1.732000000
H    -7.910000000     2.345000000     1.558000000
H    -6.736000000     1.452000000     1.899000000
O    -5.199000000     2.479000000     1.553000000
H    -4.305000000     2.804000000     1.448000000
H    -5.732000000     3.270000000     1.644000000
O    -4.317000000     5.506000000    -1.245000000
H    -4.151000000     5.872000000    -0.376000000
H    -4.482000000     4.577000000    -1.086000000
O    -0.405000000     7.953000000    -3.814000000
H     0.084000000     7.258000000    -4.255000000
H    -1.171000000     7.512000000    -3.447000000
O    -5.821000000     2.906000000    -1.371000000
H    -5.857000000     2.080000000    -1.853000000
H    -5.499000000     2.662000000    -0.503000000
O    -1.730000000     8.957000000    -1.056000000
H    -2.162000000     8.133000000    -0.830000000
H    -0.884000000     8.693000000    -1.418000000
O    -7.263000000     3.953000000    -3.413000000
H    -6.604000000     3.747000000    -2.750000000
H    -6.769000000     4.368000000    -4.120000000
O     0.816000000     8.456000000     4.032000000
H     0.796000000     8.569000000     4.982000000
H    -0.101000000     8.333000000     3.787000000
O    -3.074000000     4.466000000     3.871000000
H    -2.803000000     3.976000000     3.094000000
H    -3.119000000     5.376000000     3.576000000
O    -5.649000000     3.418000000     4.895000000
H    -4.805000000     3.701000000     4.542000000
H    -6.254000000     3.493000000     4.158000000
