215
-1452.83794
C     4.998000000     1.005000000    -0.912000000
H     4.548000000     1.710000000    -1.607000000
C     4.814000000    -0.332000000    -1.033000000
C     5.298000000    -1.200000000    -0.030000000
H     5.050000000    -2.252000000    -0.146000000
C     3.843000000    -0.858000000    -2.095000000
O     3.973000000    -0.023000000    -3.332000000
H     2.807000000    -0.763000000    -1.739000000
O     4.051000000    -2.292000000    -2.441000000
C     2.896000000    -3.085000000    -2.529000000
C     2.556000000    -3.808000000    -1.392000000
H     3.302000000    -3.940000000    -0.614000000
C     1.363000000    -4.495000000    -1.387000000
O     1.005000000    -5.037000000    -0.184000000
C     0.469000000    -4.398000000    -2.462000000
C    -0.952000000    -5.016000000    -2.318000000
H    -1.271000000    -5.354000000    -3.305000000
C    -1.892000000    -4.003000000    -1.770000000
C    -2.668000000    -3.187000000    -2.605000000
H    -2.474000000    -3.229000000    -3.674000000
H    -1.096000000    -5.905000000    -1.700000000
C     0.770000000    -3.566000000    -3.525000000
H    -0.015000000    -3.543000000    -4.277000000
C     2.006000000    -2.885000000    -3.607000000
C     2.340000000    -2.037000000    -4.776000000
H     1.958000000    -2.378000000    -5.740000000
H     3.416000000    -1.957000000    -4.944000000
C     1.927000000    -0.596000000    -4.554000000
C     0.664000000    -0.204000000    -4.938000000
H    -0.025000000    -0.969000000    -5.287000000
C     2.801000000     0.365000000    -3.997000000
C     2.313000000     1.585000000    -3.678000000
H     2.848000000     2.276000000    -3.032000000
C     1.052000000     2.016000000    -4.042000000
O     0.587000000     3.178000000    -3.534000000
C    -0.498000000     3.238000000    -2.581000000
C    -0.156000000     4.206000000    -1.539000000
C    -1.043000000     4.322000000    -0.459000000
H    -1.998000000     3.805000000    -0.502000000
C     1.126000000     4.707000000    -1.401000000
H     1.943000000     4.487000000    -2.083000000
O    -1.732000000     3.410000000    -3.206000000
H    -0.396000000     2.264000000    -2.080000000
C     0.260000000     1.097000000    -4.712000000
C    -1.104000000     1.545000000    -5.220000000
H    -1.279000000     0.983000000    -6.140000000
H    -1.056000000     2.575000000    -5.578000000
C    -2.189000000     1.238000000    -4.288000000
C    -2.879000000     0.015000000    -4.247000000
H    -2.572000000    -0.731000000    -4.976000000
C    -2.448000000     2.197000000    -3.253000000
C    -3.415000000     1.930000000    -2.288000000
H    -3.605000000     2.697000000    -1.542000000
C    -4.098000000     0.758000000    -2.291000000
O    -5.009000000     0.609000000    -1.211000000
C    -4.593000000    -0.132000000    -0.032000000
C    -5.073000000     0.515000000     1.241000000
C    -5.366000000     1.854000000     1.279000000
H    -5.239000000     2.477000000     0.398000000
C    -5.164000000    -0.248000000     2.391000000
H    -5.012000000    -1.324000000     2.361000000
O    -4.935000000    -1.551000000    -0.289000000
H    -3.501000000    -0.095000000     0.098000000
C    -3.897000000    -0.173000000    -3.321000000
C    -4.555000000    -1.529000000    -3.150000000
H    -4.592000000    -1.955000000    -4.154000000
H    -5.605000000    -1.466000000    -2.855000000
C    -3.702000000    -2.365000000    -2.197000000
C    -3.982000000    -2.362000000    -0.855000000
C    -3.182000000    -3.232000000     0.051000000
H    -3.323000000    -3.092000000     1.120000000
C    -2.164000000    -4.082000000    -0.404000000
O    -1.320000000    -4.670000000     0.511000000
C     0.002000000    -4.184000000     0.593000000
H    -0.045000000    -3.164000000     0.185000000
C     0.400000000    -3.892000000     2.023000000
C     1.614000000    -4.291000000     2.517000000
H     2.191000000    -4.929000000     1.853000000
C    -0.472000000    -3.146000000     2.867000000
H    -1.431000000    -2.863000000     2.440000000
C    -0.044000000    -2.876000000     4.190000000
O    -0.829000000    -2.076000000     5.000000000
C     1.160000000    -3.298000000     4.656000000
H     1.526000000    -3.000000000     5.635000000
C     2.011000000    -3.959000000     3.817000000
O     3.200000000    -4.348000000     4.333000000
C     4.347000000    -4.237000000     3.637000000
C     4.652000000    -3.044000000     2.994000000
H     3.955000000    -2.227000000     3.161000000
C     5.179000000    -5.366000000     3.358000000
H     4.820000000    -6.366000000     3.588000000
C     6.379000000    -5.221000000     2.676000000
H     6.909000000    -6.125000000     2.388000000
C     6.758000000    -3.920000000     2.231000000
H     7.718000000    -3.788000000     1.738000000
C     5.857000000    -2.852000000     2.322000000
O     6.300000000    -1.516000000     2.118000000
C     5.943000000    -0.726000000     1.042000000
C     6.197000000     0.603000000     1.101000000
H     6.713000000     0.941000000     1.997000000
C     5.720000000     1.497000000     0.195000000
O     6.067000000     2.809000000     0.481000000
C     5.575000000     3.901000000    -0.269000000
C     4.262000000     4.337000000    -0.050000000
H     3.782000000     3.970000000     0.853000000
C     6.313000000     4.477000000    -1.295000000
H     7.364000000     4.231000000    -1.427000000
C     5.761000000     5.525000000    -2.100000000
H     6.347000000     6.095000000    -2.817000000
C     4.422000000     6.034000000    -1.802000000
H     4.109000000     6.894000000    -2.388000000
C     3.722000000     5.493000000    -0.723000000
O     2.656000000     6.127000000    -0.126000000
C     1.442000000     5.485000000    -0.318000000
C     0.501000000     5.635000000     0.709000000
H     0.855000000     6.182000000     1.579000000
C    -0.798000000     5.142000000     0.574000000
O    -1.495000000     5.048000000     1.733000000
C    -2.779000000     5.430000000     1.788000000
C    -3.683000000     4.438000000     2.165000000
H    -3.399000000     3.411000000     2.379000000
C    -3.172000000     6.822000000     1.657000000
H    -2.400000000     7.559000000     1.448000000
C    -4.558000000     7.046000000     1.673000000
H    -4.970000000     8.024000000     1.438000000
C    -5.461000000     6.045000000     2.027000000
H    -6.516000000     6.250000000     2.193000000
C    -5.065000000     4.753000000     2.250000000
O    -5.997000000     3.843000000     2.624000000
C    -5.761000000     2.444000000     2.515000000
C    -5.835000000     1.658000000     3.652000000
H    -6.157000000     2.106000000     4.589000000
C    -5.472000000     0.308000000     3.642000000
O    -5.536000000    -0.484000000     4.760000000
C    -4.505000000    -1.393000000     5.143000000
C    -4.927000000    -2.478000000     5.876000000
H    -5.986000000    -2.574000000     6.098000000
C    -4.040000000    -3.506000000     6.175000000
H    -4.456000000    -4.349000000     6.720000000
C    -2.657000000    -3.321000000     5.895000000
H    -2.041000000    -4.039000000     6.431000000
C    -2.192000000    -2.235000000     5.151000000
C    -3.126000000    -1.219000000     4.798000000
H    -2.804000000    -0.343000000     4.242000000
C    -0.705000000     0.011000000     1.349000000
H    -1.428000000    -0.485000000     1.992000000
C    -0.364000000    -0.486000000     0.146000000
H    -0.822000000    -1.392000000    -0.245000000
C     0.567000000     0.086000000    -0.644000000
H     0.913000000    -0.379000000    -1.587000000
C     1.233000000     1.279000000    -0.245000000
H     2.000000000     1.723000000    -0.874000000
C     0.835000000     1.809000000     0.957000000
H     1.291000000     2.745000000     1.268000000
C    -0.066000000     1.193000000     1.815000000
C    -0.366000000     1.895000000     3.085000000
O     0.523000000     2.303000000     3.808000000
O    -1.400000000     1.678000000     3.662000000
O    -2.545000000     0.417000000     8.376000000
H    -1.929000000     0.666000000     7.687000000
H    -2.068000000    -0.224000000     8.903000000
O    -2.879000000     3.457000000     8.972000000
H    -3.377000000     2.817000000     8.464000000
H    -1.971000000     3.161000000     8.907000000
O    -5.159000000     3.099000000     6.909000000
H    -4.371000000     3.064000000     6.367000000
H    -5.252000000     2.212000000     7.255000000
O     0.147000000     3.821000000     6.204000000
H     0.023000000     3.348000000     5.381000000
H     1.080000000     3.724000000     6.398000000
O    -3.821000000     6.318000000     6.494000000
H    -3.362000000     5.530000000     6.785000000
H    -4.175000000     6.700000000     7.297000000
O     2.292000000    -0.918000000     1.912000000
H     1.833000000    -1.724000000     2.147000000
H     1.831000000    -0.597000000     1.136000000
O     0.030000000     5.694000000     8.273000000
H     0.025000000     5.130000000     7.501000000
H    -0.404000000     6.497000000     7.986000000
O     3.041000000     1.214000000     3.440000000
H     2.196000000     1.661000000     3.500000000
H     2.891000000     0.502000000     2.818000000
O     5.148000000     3.057000000     3.778000000
H     4.553000000     2.378000000     3.458000000
H     4.613000000     3.850000000     3.808000000
O     2.311000000     4.263000000     3.866000000
H     1.762000000     3.486000000     3.756000000
H     1.746000000     4.992000000     3.609000000
O     2.879000000     3.480000000     6.708000000
H     3.373000000     2.937000000     6.093000000
H     3.274000000     4.349000000     6.631000000
O     4.996000000     6.221000000     2.800000000
H     4.967000000     6.984000000     3.377000000
H     4.222000000     5.711000000     3.039000000
O    -0.701000000     0.504000000     6.429000000
H    -0.591000000    -0.327000000     5.967000000
H    -0.854000000     1.145000000     5.735000000
O     0.954000000     7.318000000     4.055000000
H     0.101000000     6.893000000     4.145000000
H     0.929000000     8.040000000     4.683000000
O     0.565000000    -1.255000000     8.142000000
H     0.333000000    -0.449000000     7.681000000
H     1.424000000    -1.074000000     8.523000000
O     3.892000000     0.641000000     5.911000000
H     3.535000000     0.535000000     5.029000000
H     4.387000000    -0.163000000     6.068000000
O    -2.783000000     3.373000000     5.320000000
H    -2.557000000     2.598000000     4.805000000
H    -1.943000000     3.800000000     5.490000000
O    -1.570000000     6.620000000     4.291000000
H    -2.127000000     6.553000000     5.067000000
H    -2.038000000     6.127000000     3.617000000
O     6.562000000     1.877000000     6.116000000
H     6.555000000     2.802000000     6.362000000
H     5.653000000     1.683000000     5.887000000
