215
-1474.59082
C     4.924000000     1.172000000    -1.102000000
H     4.251000000     1.877000000    -1.584000000
C     4.731000000    -0.213000000    -1.362000000
C     5.508000000    -1.115000000    -0.613000000
H     5.490000000    -2.191000000    -0.771000000
C     3.595000000    -0.700000000    -2.248000000
O     3.370000000     0.051000000    -3.472000000
H     2.696000000    -0.588000000    -1.624000000
O     3.817000000    -2.069000000    -2.606000000
C     2.663000000    -2.905000000    -2.545000000
C     2.456000000    -3.683000000    -1.438000000
H     3.151000000    -3.575000000    -0.610000000
C     1.292000000    -4.433000000    -1.263000000
O     1.100000000    -4.993000000    -0.021000000
C     0.274000000    -4.404000000    -2.236000000
C    -1.018000000    -5.158000000    -1.948000000
H    -1.514000000    -5.483000000    -2.865000000
C    -1.998000000    -4.189000000    -1.276000000
C    -2.945000000    -3.544000000    -2.012000000
H    -2.976000000    -3.729000000    -3.083000000
H    -0.799000000    -6.081000000    -1.406000000
C     0.455000000    -3.571000000    -3.329000000
H    -0.335000000    -3.437000000    -4.064000000
C     1.609000000    -2.816000000    -3.488000000
C     1.647000000    -1.968000000    -4.744000000
H     0.997000000    -2.320000000    -5.548000000
H     2.687000000    -1.923000000    -5.076000000
C     1.190000000    -0.549000000    -4.515000000
C    -0.112000000    -0.167000000    -4.828000000
H    -0.758000000    -0.934000000    -5.248000000
C     2.062000000     0.361000000    -3.929000000
C     1.601000000     1.676000000    -3.758000000
H     2.233000000     2.440000000    -3.312000000
C     0.290000000     2.036000000    -4.085000000
O    -0.138000000     3.270000000    -3.677000000
C    -1.022000000     3.386000000    -2.517000000
C    -0.555000000     4.484000000    -1.603000000
C    -1.507000000     5.025000000    -0.768000000
H    -2.535000000     4.677000000    -0.726000000
C     0.744000000     4.931000000    -1.440000000
H     1.468000000     4.519000000    -2.138000000
O    -2.363000000     3.421000000    -3.009000000
H    -1.061000000     2.470000000    -1.909000000
C    -0.571000000     1.101000000    -4.679000000
C    -1.971000000     1.518000000    -5.067000000
H    -2.155000000     0.868000000    -5.925000000
H    -1.979000000     2.557000000    -5.401000000
C    -2.938000000     1.278000000    -3.967000000
C    -3.400000000     0.003000000    -3.742000000
H    -3.190000000    -0.793000000    -4.452000000
C    -3.152000000     2.289000000    -2.997000000
C    -3.932000000     2.028000000    -1.872000000
H    -3.930000000     2.784000000    -1.092000000
C    -4.338000000     0.758000000    -1.631000000
O    -5.023000000     0.522000000    -0.450000000
C    -4.199000000    -0.150000000     0.526000000
C    -4.464000000     0.508000000     1.820000000
C    -4.921000000     1.854000000     1.899000000
H    -5.132000000     2.382000000     0.972000000
C    -4.184000000    -0.215000000     2.999000000
H    -3.831000000    -1.243000000     2.972000000
O    -4.571000000    -1.538000000     0.601000000
H    -3.132000000    -0.138000000     0.257000000
C    -4.113000000    -0.300000000    -2.544000000
C    -4.678000000    -1.699000000    -2.365000000
H    -4.801000000    -2.155000000    -3.350000000
H    -5.703000000    -1.685000000    -1.986000000
C    -3.804000000    -2.617000000    -1.529000000
C    -3.785000000    -2.432000000    -0.125000000
C    -2.908000000    -3.151000000     0.635000000
H    -2.880000000    -2.981000000     1.708000000
C    -1.970000000    -4.023000000     0.118000000
O    -1.021000000    -4.610000000     0.934000000
C     0.346000000    -4.212000000     0.857000000
H     0.449000000    -3.180000000     0.488000000
C     0.948000000    -4.230000000     2.249000000
C     2.332000000    -4.239000000     2.396000000
H     2.982000000    -4.448000000     1.550000000
C     0.140000000    -3.846000000     3.327000000
H    -0.920000000    -3.727000000     3.119000000
C     0.701000000    -3.556000000     4.589000000
O     0.000000000    -2.984000000     5.623000000
C     2.085000000    -3.685000000     4.758000000
H     2.556000000    -3.672000000     5.738000000
C     2.895000000    -3.959000000     3.621000000
O     4.233000000    -4.212000000     3.817000000
C     5.206000000    -4.123000000     2.828000000
C     5.594000000    -2.851000000     2.399000000
H     5.029000000    -1.969000000     2.691000000
C     6.013000000    -5.253000000     2.595000000
H     5.850000000    -6.152000000     3.184000000
C     7.088000000    -5.118000000     1.645000000
H     7.640000000    -5.999000000     1.328000000
C     7.369000000    -3.896000000     1.139000000
H     8.239000000    -3.882000000     0.486000000
C     6.698000000    -2.776000000     1.541000000
O     7.201000000    -1.510000000     1.099000000
C     6.418000000    -0.604000000     0.369000000
C     6.592000000     0.808000000     0.469000000
H     7.340000000     1.204000000     1.151000000
C     5.872000000     1.720000000    -0.264000000
O     5.983000000     3.111000000     0.012000000
C     5.303000000     4.086000000    -0.682000000
C     4.182000000     4.715000000    -0.136000000
H     3.832000000     4.571000000     0.883000000
C     5.611000000     4.264000000    -2.034000000
H     6.428000000     3.683000000    -2.456000000
C     4.815000000     5.166000000    -2.828000000
H     5.060000000     5.313000000    -3.877000000
C     3.783000000     5.831000000    -2.219000000
H     3.200000000     6.515000000    -2.831000000
C     3.514000000     5.678000000    -0.877000000
O     2.380000000     6.294000000    -0.301000000
C     1.076000000     5.880000000    -0.476000000
C     0.087000000     6.338000000     0.402000000
H     0.445000000     7.009000000     1.179000000
C    -1.208000000     5.887000000     0.302000000
O    -2.109000000     6.402000000     1.194000000
C    -3.392000000     6.021000000     1.333000000
C    -3.846000000     5.028000000     2.218000000
H    -3.177000000     4.475000000     2.872000000
C    -4.397000000     6.691000000     0.655000000
H    -4.100000000     7.479000000    -0.032000000
C    -5.783000000     6.397000000     0.735000000
H    -6.516000000     6.905000000     0.113000000
C    -6.176000000     5.367000000     1.625000000
H    -7.204000000     5.025000000     1.716000000
C    -5.203000000     4.717000000     2.386000000
O    -5.559000000     3.713000000     3.206000000
C    -4.990000000     2.479000000     3.110000000
C    -4.642000000     1.815000000     4.279000000
H    -4.757000000     2.382000000     5.199000000
C    -4.194000000     0.477000000     4.213000000
O    -3.961000000    -0.171000000     5.375000000
C    -3.359000000    -1.447000000     5.534000000
C    -4.155000000    -2.545000000     5.825000000
H    -5.231000000    -2.430000000     5.934000000
C    -3.601000000    -3.844000000     6.043000000
H    -4.211000000    -4.650000000     6.442000000
C    -2.222000000    -3.969000000     5.860000000
H    -1.863000000    -4.976000000     6.057000000
C    -1.392000000    -2.855000000     5.669000000
C    -1.964000000    -1.571000000     5.638000000
H    -1.311000000    -0.722000000     5.452000000
C    -0.118000000     0.176000000     2.068000000
H    -0.501000000    -0.489000000     2.838000000
C    -0.129000000    -0.226000000     0.697000000
H    -0.655000000    -1.164000000     0.539000000
C     0.380000000     0.663000000    -0.289000000
H     0.381000000     0.441000000    -1.385000000
C     0.861000000     1.908000000     0.176000000
H     1.234000000     2.705000000    -0.462000000
C     0.712000000     2.324000000     1.524000000
H     1.145000000     3.269000000     1.842000000
C     0.217000000     1.432000000     2.481000000
C     0.242000000     1.833000000     3.969000000
O     0.490000000     2.989000000     4.307000000
O     0.167000000     1.021000000     4.853000000
O    -1.185000000     0.948000000     7.287000000
H    -0.816000000     0.855000000     6.409000000
H    -1.514000000     1.846000000     7.315000000
O    -4.157000000     4.902000000     6.917000000
H    -3.341000000     4.554000000     6.557000000
H    -4.481000000     4.207000000     7.490000000
O     1.912000000     2.884000000     6.860000000
H     1.384000000     2.704000000     6.082000000
H     1.429000000     2.473000000     7.577000000
O    -1.471000000     3.387000000     8.965000000
H    -0.832000000     3.780000000     9.559000000
H    -1.808000000     2.629000000     9.443000000
O     2.827000000    -0.501000000     1.126000000
H     2.004000000    -0.019000000     1.040000000
H     3.237000000    -0.137000000     1.911000000
O    -0.515000000     5.953000000     8.025000000
H    -1.071000000     5.178000000     8.110000000
H    -1.122000000     6.691000000     8.083000000
O     3.547000000     0.504000000     3.708000000
H     2.853000000    -0.106000000     3.959000000
H     3.879000000     0.844000000     4.539000000
O     1.257000000     5.528000000     3.568000000
H     0.951000000     4.721000000     3.982000000
H     0.680000000     6.208000000     3.915000000
O    -0.761000000    -1.419000000     8.819000000
H    -1.288000000    -1.073000000     9.539000000
H    -0.932000000    -0.821000000     8.090000000
O     3.584000000     3.936000000     3.415000000
H     3.193000000     3.063000000     3.419000000
H     2.836000000     4.534000000     3.426000000
O     1.989000000    -0.770000000     5.564000000
H     1.757000000    -1.654000000     5.281000000
H     1.227000000    -0.238000000     5.336000000
O     1.941000000     5.886000000     6.904000000
H     1.851000000     4.942000000     6.776000000
H     1.110000000     6.156000000     7.295000000
O     0.968000000     1.395000000     9.212000000
H     0.185000000     1.273000000     8.676000000
H     0.699000000     1.133000000    10.093000000
O     2.802000000    -0.340000000     8.277000000
H     2.335000000    -0.288000000     7.443000000
H     2.382000000     0.321000000     8.828000000
O     4.922000000     4.955000000     6.384000000
H     5.615000000     5.278000000     5.808000000
H     4.211000000     4.712000000     5.790000000
O    -1.694000000     4.244000000     5.706000000
H    -0.982000000     3.704000000     5.364000000
H    -1.347000000     5.136000000     5.692000000
O    -0.799000000     7.165000000     3.988000000
H    -1.215000000     7.265000000     3.132000000
H    -1.052000000     7.952000000     4.471000000
O    -3.849000000     0.170000000     8.447000000
H    -4.069000000     0.826000000     9.108000000
H    -2.975000000     0.417000000     8.145000000
O     4.289000000     1.894000000     5.979000000
H     3.452000000     2.325000000     6.153000000
H     4.677000000     1.767000000     6.844000000
