215
-1448.08526
C     4.234000000     2.765000000    -1.375000000
H     3.404000000     3.090000000    -1.998000000
C     4.518000000     1.435000000    -1.607000000
C     5.561000000     0.854000000    -0.890000000
H     5.855000000    -0.171000000    -1.103000000
C     3.632000000     0.537000000    -2.536000000
O     3.183000000     1.221000000    -3.741000000
H     2.731000000     0.340000000    -1.937000000
O     4.234000000    -0.780000000    -2.829000000
C     3.394000000    -1.828000000    -2.743000000
C     3.510000000    -2.574000000    -1.548000000
H     4.291000000    -2.445000000    -0.803000000
C     2.538000000    -3.511000000    -1.315000000
O     2.457000000    -4.134000000    -0.068000000
C     1.548000000    -3.794000000    -2.292000000
C     0.563000000    -4.939000000    -2.049000000
H     0.311000000    -5.309000000    -3.045000000
C    -0.652000000    -4.547000000    -1.244000000
C    -1.870000000    -4.406000000    -1.981000000
H    -1.850000000    -4.498000000    -3.064000000
H     1.041000000    -5.690000000    -1.416000000
C     1.539000000    -3.161000000    -3.550000000
H     0.790000000    -3.542000000    -4.239000000
C     2.398000000    -2.137000000    -3.768000000
C     2.194000000    -1.282000000    -4.918000000
H     1.768000000    -1.845000000    -5.752000000
H     3.181000000    -0.913000000    -5.205000000
C     1.404000000    -0.091000000    -4.704000000
C     0.054000000    -0.184000000    -4.988000000
H    -0.326000000    -1.091000000    -5.452000000
C     1.832000000     1.096000000    -4.107000000
C     0.966000000     2.083000000    -3.742000000
H     1.402000000     2.913000000    -3.192000000
C    -0.425000000     1.901000000    -3.963000000
O    -1.316000000     2.868000000    -3.517000000
C    -1.957000000     2.618000000    -2.292000000
C    -1.795000000     3.827000000    -1.372000000
C    -2.776000000     4.013000000    -0.450000000
H    -3.701000000     3.454000000    -0.560000000
C    -0.641000000     4.576000000    -1.212000000
H     0.263000000     4.376000000    -1.781000000
O    -3.337000000     2.303000000    -2.640000000
H    -1.573000000     1.754000000    -1.731000000
C    -0.881000000     0.772000000    -4.609000000
C    -2.328000000     0.533000000    -4.968000000
H    -2.402000000    -0.198000000    -5.775000000
H    -2.860000000     1.466000000    -5.168000000
C    -3.152000000     0.033000000    -3.750000000
C    -3.347000000    -1.323000000    -3.609000000
H    -2.992000000    -1.988000000    -4.393000000
C    -3.580000000     0.981000000    -2.769000000
C    -4.251000000     0.537000000    -1.668000000
H    -4.560000000     1.171000000    -0.841000000
C    -4.533000000    -0.851000000    -1.552000000
O    -4.999000000    -1.178000000    -0.291000000
C    -4.095000000    -1.754000000     0.638000000
C    -4.484000000    -1.253000000     2.029000000
C    -4.999000000     0.062000000     2.197000000
H    -5.132000000     0.781000000     1.393000000
C    -4.204000000    -1.987000000     3.217000000
H    -3.820000000    -3.002000000     3.177000000
O    -4.084000000    -3.151000000     0.571000000
H    -3.103000000    -1.359000000     0.372000000
C    -3.983000000    -1.790000000    -2.457000000
C    -4.209000000    -3.301000000    -2.325000000
H    -4.203000000    -3.814000000    -3.288000000
H    -5.224000000    -3.430000000    -1.944000000
C    -3.050000000    -3.911000000    -1.460000000
C    -3.044000000    -3.699000000    -0.047000000
C    -1.944000000    -3.978000000     0.740000000
H    -2.033000000    -3.916000000     1.822000000
C    -0.697000000    -4.259000000     0.148000000
O     0.382000000    -4.428000000     0.937000000
C     1.489000000    -3.568000000     0.831000000
H     1.058000000    -2.680000000     0.345000000
C     2.095000000    -3.172000000     2.182000000
C     3.420000000    -2.771000000     2.429000000
H     4.017000000    -2.792000000     1.521000000
C     1.184000000    -3.154000000     3.330000000
H     0.192000000    -3.567000000     3.166000000
C     1.658000000    -2.608000000     4.560000000
O     0.852000000    -2.469000000     5.625000000
C     2.937000000    -2.132000000     4.719000000
H     3.209000000    -1.636000000     5.647000000
C     3.845000000    -2.225000000     3.648000000
O     5.085000000    -1.650000000     3.848000000
C     6.113000000    -1.612000000     3.015000000
C     6.248000000    -0.477000000     2.220000000
H     5.658000000     0.428000000     2.337000000
C     6.967000000    -2.727000000     2.718000000
H     6.923000000    -3.684000000     3.231000000
C     7.980000000    -2.566000000     1.664000000
H     8.677000000    -3.345000000     1.367000000
C     8.141000000    -1.352000000     1.022000000
H     9.005000000    -1.207000000     0.379000000
C     7.289000000    -0.302000000     1.343000000
O     7.421000000     0.919000000     0.686000000
C     6.335000000     1.534000000     0.069000000
C     6.115000000     2.900000000     0.180000000
H     6.754000000     3.488000000     0.834000000
C     5.105000000     3.513000000    -0.574000000
O     4.961000000     4.899000000    -0.586000000
C     3.892000000     5.509000000    -1.209000000
C     2.749000000     5.875000000    -0.494000000
H     2.667000000     5.791000000     0.587000000
C     3.951000000     5.738000000    -2.575000000
H     4.807000000     5.419000000    -3.164000000
C     2.744000000     6.090000000    -3.216000000
H     2.863000000     6.263000000    -4.283000000
C     1.654000000     6.575000000    -2.552000000
H     0.802000000     7.022000000    -3.057000000
C     1.608000000     6.272000000    -1.202000000
O     0.452000000     6.595000000    -0.447000000
C    -0.545000000     5.620000000    -0.343000000
C    -1.610000000     5.971000000     0.455000000
H    -1.618000000     6.856000000     1.086000000
C    -2.706000000     5.114000000     0.399000000
O    -3.787000000     5.452000000     1.180000000
C    -4.862000000     4.655000000     1.449000000
C    -4.788000000     3.617000000     2.358000000
H    -3.875000000     3.370000000     2.892000000
C    -6.054000000     5.004000000     0.881000000
H    -6.149000000     5.825000000     0.174000000
C    -7.129000000     4.193000000     1.092000000
H    -8.050000000     4.476000000     0.591000000
C    -7.068000000     3.068000000     1.896000000
H    -7.977000000     2.525000000     2.142000000
C    -5.874000000     2.788000000     2.582000000
O    -5.809000000     1.834000000     3.578000000
C    -5.298000000     0.583000000     3.457000000
C    -5.087000000    -0.191000000     4.595000000
H    -5.402000000     0.131000000     5.585000000
C    -4.414000000    -1.397000000     4.470000000
O    -4.050000000    -2.086000000     5.699000000
C    -2.823000000    -2.694000000     5.889000000
C    -2.969000000    -4.050000000     6.221000000
H    -3.978000000    -4.438000000     6.331000000
C    -1.886000000    -4.874000000     6.260000000
H    -2.090000000    -5.903000000     6.544000000
C    -0.576000000    -4.317000000     6.105000000
H     0.289000000    -4.974000000     6.068000000
C    -0.450000000    -2.995000000     5.710000000
C    -1.598000000    -2.111000000     5.607000000
H    -1.500000000    -1.076000000     5.288000000
C    -0.852000000     1.909000000     2.357000000
H    -1.539000000     2.151000000     3.164000000
C    -1.211000000     0.813000000     1.560000000
H    -1.990000000     0.104000000     1.829000000
C    -0.463000000     0.588000000     0.488000000
H    -0.687000000    -0.209000000    -0.235000000
C     0.615000000     1.431000000     0.125000000
H     1.272000000     1.324000000    -0.734000000
C     0.906000000     2.518000000     0.879000000
H     1.688000000     3.209000000     0.574000000
C     0.219000000     2.758000000     2.032000000
C     0.532000000     3.905000000     3.003000000
O     1.367000000     4.726000000     2.746000000
O     0.033000000     3.896000000     4.117000000
O     6.319000000     3.039000000     4.340000000
H     6.927000000     3.705000000     4.020000000
H     5.471000000     3.295000000     3.978000000
O    -1.234000000     6.301000000     4.276000000
H    -0.443000000     6.818000000     4.122000000
H    -0.938000000     5.392000000     4.232000000
O    -0.429000000     4.920000000     8.294000000
H    -0.933000000     4.734000000     7.501000000
H     0.483000000     4.927000000     8.002000000
O     5.186000000     6.157000000     2.918000000
H     4.688000000     5.346000000     2.819000000
H     6.092000000     5.870000000     3.028000000
O     0.996000000     7.264000000     3.083000000
H     1.296000000     6.358000000     3.016000000
H     0.410000000     7.378000000     2.335000000
O     4.845000000     1.511000000     6.237000000
H     5.313000000     2.044000000     5.594000000
H     5.529000000     0.994000000     6.663000000
O     2.090000000     3.184000000     8.522000000
H     2.218000000     3.776000000     7.780000000
H     2.314000000     2.319000000     8.180000000
O     2.759000000     1.287000000     3.652000000
H     2.877000000     0.434000000     4.069000000
H     1.906000000     1.228000000     3.221000000
O    -2.914000000     1.721000000     7.320000000
H    -2.458000000     2.510000000     7.025000000
H    -2.213000000     1.098000000     7.514000000
O     1.947000000     1.045000000     6.432000000
H     1.624000000     1.773000000     5.902000000
H     2.900000000     1.131000000     6.403000000
O     3.964000000     6.098000000     5.660000000
H     4.230000000     7.001000000     5.836000000
H     3.958000000     6.032000000     4.705000000
O    -1.829000000     3.947000000     6.236000000
H    -1.336000000     3.677000000     5.461000000
H    -2.353000000     4.690000000     5.939000000
O     3.368000000     8.299000000     2.368000000
H     4.161000000     7.829000000     2.628000000
H     2.665000000     7.870000000     2.856000000
O    -1.205000000     9.160000000     2.457000000
H    -2.149000000     9.090000000     2.315000000
H    -1.119000000     9.383000000     3.384000000
O     3.989000000     3.761000000     2.972000000
H     3.788000000     2.828000000     3.053000000
H     3.165000000     4.159000000     2.692000000
O     1.840000000     3.912000000     6.024000000
H     1.105000000     4.004000000     5.418000000
H     2.569000000     4.352000000     5.586000000
O     1.538000000     8.870000000     5.214000000
H     1.430000000     8.297000000     4.455000000
H     0.675000000     9.265000000     5.340000000
O    -1.193000000     9.435000000     5.582000000
H    -1.624000000     8.624000000     5.853000000
H    -1.774000000    10.130000000     5.893000000
O    -3.941000000     6.616000000     3.953000000
H    -4.178000000     5.870000000     4.503000000
H    -2.984000000     6.601000000     3.929000000
