215
-1453.58507
C     4.710000000     2.204000000    -0.747000000
H     4.113000000     2.694000000    -1.512000000
C     4.829000000     0.786000000    -0.871000000
C     5.530000000     0.073000000     0.157000000
H     5.721000000    -0.997000000     0.191000000
C     3.997000000     0.027000000    -1.877000000
O     3.755000000     0.801000000    -3.091000000
H     2.984000000    -0.092000000    -1.464000000
O     4.504000000    -1.304000000    -2.143000000
C     3.530000000    -2.280000000    -2.129000000
C     3.356000000    -2.998000000    -0.925000000
H     4.106000000    -2.791000000    -0.165000000
C     2.271000000    -3.821000000    -0.855000000
O     2.050000000    -4.422000000     0.387000000
C     1.450000000    -4.064000000    -1.971000000
C     0.369000000    -5.117000000    -1.863000000
H     0.190000000    -5.452000000    -2.887000000
C    -0.975000000    -4.576000000    -1.390000000
C    -1.872000000    -3.971000000    -2.293000000
H    -1.622000000    -3.866000000    -3.345000000
H     0.673000000    -5.941000000    -1.214000000
C     1.748000000    -3.459000000    -3.206000000
H     1.066000000    -3.629000000    -4.035000000
C     2.728000000    -2.448000000    -3.278000000
C     2.807000000    -1.544000000    -4.535000000
H     2.570000000    -2.056000000    -5.470000000
H     3.859000000    -1.278000000    -4.654000000
C     2.008000000    -0.279000000    -4.413000000
C     0.778000000    -0.217000000    -4.992000000
H     0.401000000    -1.078000000    -5.537000000
C     2.549000000     0.824000000    -3.706000000
C     1.774000000     1.946000000    -3.597000000
H     2.009000000     2.850000000    -3.041000000
C     0.532000000     2.011000000    -4.233000000
O    -0.297000000     3.072000000    -3.960000000
C    -1.171000000     3.081000000    -2.837000000
C    -1.092000000     4.425000000    -2.086000000
C    -2.176000000     4.853000000    -1.321000000
H    -3.133000000     4.340000000    -1.348000000
C     0.115000000     5.087000000    -1.986000000
H     0.938000000     4.670000000    -2.562000000
O    -2.498000000     2.898000000    -3.335000000
H    -0.971000000     2.245000000    -2.150000000
C     0.023000000     0.914000000    -4.840000000
C    -1.436000000     0.819000000    -5.256000000
H    -1.606000000     0.041000000    -6.004000000
H    -1.656000000     1.742000000    -5.797000000
C    -2.344000000     0.582000000    -4.092000000
C    -2.650000000    -0.783000000    -3.930000000
H    -2.230000000    -1.553000000    -4.572000000
C    -2.903000000     1.537000000    -3.268000000
C    -3.811000000     1.108000000    -2.278000000
H    -4.168000000     1.840000000    -1.559000000
C    -4.065000000    -0.187000000    -2.030000000
O    -4.792000000    -0.622000000    -0.926000000
C    -4.098000000    -1.190000000     0.209000000
C    -4.585000000    -0.466000000     1.445000000
C    -4.970000000     0.866000000     1.522000000
H    -4.779000000     1.433000000     0.614000000
C    -4.692000000    -1.262000000     2.614000000
H    -4.547000000    -2.338000000     2.570000000
O    -4.230000000    -2.641000000     0.250000000
H    -3.029000000    -0.955000000     0.107000000
C    -3.532000000    -1.164000000    -2.869000000
C    -3.921000000    -2.658000000    -2.724000000
H    -3.819000000    -3.221000000    -3.654000000
H    -4.964000000    -2.685000000    -2.402000000
C    -3.037000000    -3.402000000    -1.737000000
C    -3.266000000    -3.400000000    -0.351000000
C    -2.359000000    -4.011000000     0.534000000
H    -2.589000000    -3.958000000     1.595000000
C    -1.170000000    -4.585000000    -0.024000000
O    -0.205000000    -4.983000000     0.888000000
C     0.873000000    -3.997000000     1.050000000
H     0.589000000    -2.960000000     0.820000000
C     1.155000000    -3.957000000     2.563000000
C     2.452000000    -3.490000000     2.973000000
H     3.316000000    -3.528000000     2.316000000
C     0.099000000    -4.051000000     3.480000000
H    -0.844000000    -4.481000000     3.153000000
C     0.231000000    -3.536000000     4.767000000
O    -0.865000000    -3.529000000     5.634000000
C     1.480000000    -3.028000000     5.158000000
H     1.585000000    -2.709000000     6.192000000
C     2.582000000    -3.043000000     4.309000000
O     3.787000000    -2.505000000     4.739000000
C     4.989000000    -2.368000000     4.018000000
C     5.404000000    -1.120000000     3.488000000
H     4.780000000    -0.258000000     3.707000000
C     5.823000000    -3.450000000     3.985000000
H     5.667000000    -4.412000000     4.467000000
C     6.969000000    -3.414000000     3.247000000
H     7.535000000    -4.338000000     3.159000000
C     7.337000000    -2.218000000     2.575000000
H     8.226000000    -2.146000000     1.953000000
C     6.534000000    -1.073000000     2.715000000
O     6.920000000     0.143000000     2.132000000
C     6.209000000     0.796000000     1.129000000
C     6.106000000     2.200000000     1.132000000
H     6.515000000     2.745000000     1.979000000
C     5.304000000     2.884000000     0.286000000
O     5.327000000     4.296000000     0.397000000
C     4.682000000     5.191000000    -0.465000000
C     3.339000000     5.504000000    -0.233000000
H     2.817000000     5.224000000     0.678000000
C     5.271000000     5.586000000    -1.650000000
H     6.171000000     5.091000000    -2.007000000
C     4.624000000     6.389000000    -2.555000000
H     5.034000000     6.715000000    -3.508000000
C     3.317000000     6.813000000    -2.313000000
H     2.801000000     7.359000000    -3.098000000
C     2.662000000     6.406000000    -1.118000000
O     1.457000000     6.855000000    -0.757000000
C     0.234000000     6.209000000    -1.066000000
C    -0.872000000     6.662000000    -0.373000000
H    -0.765000000     7.508000000     0.300000000
C    -2.031000000     5.948000000    -0.410000000
O    -3.118000000     6.371000000     0.307000000
C    -4.188000000     5.528000000     0.600000000
C    -4.263000000     4.675000000     1.697000000
H    -3.522000000     4.746000000     2.489000000
C    -5.322000000     5.511000000    -0.188000000
H    -5.434000000     6.180000000    -1.037000000
C    -6.416000000     4.655000000     0.099000000
H    -7.333000000     4.763000000    -0.475000000
C    -6.370000000     3.743000000     1.121000000
H    -7.202000000     3.081000000     1.348000000
C    -5.272000000     3.774000000     1.948000000
O    -5.348000000     2.880000000     2.987000000
C    -5.256000000     1.467000000     2.794000000
C    -5.266000000     0.697000000     3.919000000
H    -5.464000000     1.250000000     4.834000000
C    -5.129000000    -0.687000000     3.849000000
O    -5.271000000    -1.499000000     4.965000000
C    -4.449000000    -2.668000000     5.099000000
C    -5.002000000    -3.938000000     5.071000000
H    -6.082000000    -3.923000000     4.954000000
C    -4.222000000    -5.025000000     5.220000000
H    -4.697000000    -6.000000000     5.290000000
C    -2.835000000    -4.899000000     5.269000000
H    -2.238000000    -5.800000000     5.384000000
C    -2.242000000    -3.649000000     5.222000000
C    -3.066000000    -2.552000000     5.188000000
H    -2.611000000    -1.574000000     5.320000000
C    -0.785000000     0.727000000     2.123000000
H    -1.204000000     0.719000000     3.126000000
C    -0.916000000    -0.440000000     1.358000000
H    -1.183000000    -1.381000000     1.832000000
C    -0.520000000    -0.352000000     0.069000000
H    -0.597000000    -1.310000000    -0.522000000
C     0.101000000     0.755000000    -0.484000000
H     0.519000000     0.746000000    -1.487000000
C     0.108000000     1.866000000     0.296000000
H     0.612000000     2.703000000    -0.181000000
C    -0.190000000     1.834000000     1.622000000
C     0.010000000     3.046000000     2.559000000
O     0.854000000     3.871000000     2.306000000
O    -0.475000000     3.005000000     3.718000000
O    -1.542000000     8.535000000     2.647000000
H    -1.647000000     7.672000000     3.047000000
H    -0.606000000     8.599000000     2.457000000
O     4.322000000     6.797000000     2.582000000
H     5.036000000     6.490000000     3.140000000
H     3.724000000     6.051000000     2.526000000
O    -0.118000000     1.474000000     6.035000000
H     0.549000000     0.852000000     5.744000000
H    -0.201000000     2.093000000     5.310000000
O     1.298000000     6.887000000     3.739000000
H     2.082000000     6.368000000     3.560000000
H     1.038000000     7.231000000     2.884000000
O     0.758000000     6.699000000     6.313000000
H     0.818000000     6.725000000     5.358000000
H     1.247000000     7.469000000     6.604000000
O     1.513000000     3.991000000     5.816000000
H     0.888000000     3.686000000     5.160000000
H     1.051000000     4.689000000     6.282000000
O    -3.337000000     3.851000000     8.367000000
H    -4.029000000     3.894000000     7.708000000
H    -2.812000000     3.091000000     8.114000000
O    -3.143000000     1.378000000     6.651000000
H    -3.483000000     0.985000000     7.455000000
H    -2.252000000     1.037000000     6.575000000
O     2.666000000     0.226000000     1.820000000
H     2.487000000     1.165000000     1.869000000
H     1.849000000    -0.157000000     1.502000000
O    -2.711000000     6.407000000     6.616000000
H    -1.823000000     6.714000000     6.801000000
H    -2.585000000     5.596000000     6.123000000
O     3.984000000     2.334000000     6.390000000
H     3.169000000     2.835000000     6.368000000
H     3.912000000     1.725000000     5.656000000
O     0.897000000     9.085000000     1.699000000
H     1.802000000     9.395000000     1.672000000
H     0.578000000     9.196000000     0.803000000
O     4.118000000     5.527000000     6.621000000
H     3.357000000     5.084000000     6.996000000
H     4.441000000     6.087000000     7.327000000
O     5.923000000     5.459000000     4.346000000
H     5.349000000     5.201000000     5.068000000
H     6.665000000     4.856000000     4.404000000
O    -1.266000000     5.841000000     2.755000000
H    -0.591000000     5.171000000     2.864000000
H    -1.592000000     5.710000000     1.864000000
O     2.941000000     4.676000000     3.405000000
H     2.470000000     4.627000000     4.238000000
H     2.341000000     4.287000000     2.768000000
O     2.039000000     0.158000000     5.088000000
H     2.239000000    -0.536000000     5.717000000
H     2.497000000    -0.104000000     4.290000000
O     0.009000000     2.544000000     8.624000000
H     0.960000000     2.569000000     8.526000000
H    -0.308000000     2.191000000     7.792000000
O    -2.323000000     3.943000000     5.635000000
H    -2.739000000     3.104000000     5.838000000
H    -1.661000000     3.729000000     4.978000000
