215
-1436.05192
C    -1.071000000     2.035000000    -4.964000000
H    -1.560000000     1.068000000    -5.054000000
C     0.244000000     2.159000000    -4.551000000
C     0.876000000     3.373000000    -4.574000000
H     1.955000000     3.460000000    -4.473000000
C     0.937000000     0.851000000    -4.178000000
O     0.578000000    -0.336000000    -4.932000000
H     0.804000000     0.612000000    -3.113000000
O     2.353000000     0.990000000    -4.415000000
C     3.198000000     0.395000000    -3.510000000
C     3.605000000     1.220000000    -2.432000000
H     3.236000000     2.240000000    -2.503000000
C     4.371000000     0.740000000    -1.377000000
O     4.554000000     1.564000000    -0.348000000
C     4.653000000    -0.644000000    -1.324000000
C     5.339000000    -1.354000000    -0.178000000
H     5.865000000    -2.192000000    -0.640000000
C     4.347000000    -1.762000000     0.889000000
C     4.005000000    -3.068000000     1.124000000
H     4.347000000    -3.854000000     0.456000000
H     6.107000000    -0.731000000     0.286000000
C     4.122000000    -1.436000000    -2.369000000
H     4.237000000    -2.508000000    -2.234000000
C     3.421000000    -0.987000000    -3.413000000
C     2.947000000    -1.981000000    -4.469000000
H     3.491000000    -2.927000000    -4.502000000
H     3.025000000    -1.478000000    -5.435000000
C     1.458000000    -2.383000000    -4.148000000
C     1.227000000    -3.527000000    -3.370000000
H     2.045000000    -4.215000000    -3.169000000
C     0.358000000    -1.513000000    -4.398000000
C    -0.948000000    -1.830000000    -3.935000000
H    -1.787000000    -1.166000000    -4.130000000
C    -1.216000000    -3.023000000    -3.244000000
O    -2.447000000    -3.212000000    -2.599000000
C    -2.559000000    -2.985000000    -1.150000000
C    -3.826000000    -2.187000000    -0.914000000
C    -4.821000000    -2.577000000     0.015000000
H    -4.720000000    -3.443000000     0.665000000
C    -4.011000000    -1.014000000    -1.612000000
H    -3.318000000    -0.751000000    -2.407000000
O    -2.575000000    -4.226000000    -0.426000000
H    -1.721000000    -2.377000000    -0.778000000
C    -0.104000000    -3.904000000    -2.973000000
C    -0.382000000    -5.139000000    -2.072000000
H     0.403000000    -5.830000000    -2.386000000
H    -1.353000000    -5.583000000    -2.302000000
C    -0.283000000    -4.902000000    -0.594000000
C     0.927000000    -5.107000000     0.093000000
H     1.762000000    -5.442000000    -0.517000000
C    -1.398000000    -4.524000000     0.216000000
C    -1.261000000    -4.307000000     1.593000000
H    -2.033000000    -3.894000000     2.237000000
C    -0.054000000    -4.384000000     2.190000000
O    -0.025000000    -4.028000000     3.503000000
C     0.391000000    -2.624000000     3.643000000
C    -0.402000000    -1.803000000     4.594000000
C    -1.742000000    -1.701000000     4.442000000
H    -2.309000000    -2.294000000     3.728000000
C     0.173000000    -0.801000000     5.424000000
H     1.245000000    -0.628000000     5.470000000
O     1.781000000    -2.645000000     4.012000000
H     0.264000000    -2.140000000     2.663000000
C     1.052000000    -4.852000000     1.476000000
C     2.437000000    -4.746000000     2.058000000
H     3.136000000    -5.421000000     1.559000000
H     2.540000000    -5.181000000     3.054000000
C     3.069000000    -3.407000000     2.133000000
C     2.714000000    -2.447000000     3.038000000
C     3.217000000    -1.191000000     2.983000000
H     2.919000000    -0.578000000     3.829000000
C     3.969000000    -0.819000000     1.870000000
O     4.282000000     0.529000000     1.770000000
C     3.612000000     1.319000000     0.761000000
H     2.700000000     0.805000000     0.424000000
C     3.074000000     2.682000000     1.358000000
C     2.925000000     3.754000000     0.482000000
H     3.158000000     3.568000000    -0.563000000
C     2.674000000     2.834000000     2.687000000
H     2.845000000     1.999000000     3.362000000
C     2.192000000     4.092000000     3.056000000
O     1.704000000     4.263000000     4.353000000
C     1.998000000     5.153000000     2.182000000
H     1.516000000     6.058000000     2.544000000
C     2.327000000     4.981000000     0.883000000
O     1.948000000     5.992000000    -0.006000000
C     2.368000000     6.126000000    -1.317000000
C     1.400000000     5.943000000    -2.334000000
H     0.454000000     5.464000000    -2.095000000
C     3.499000000     6.765000000    -1.705000000
H     4.142000000     7.089000000    -0.890000000
C     3.898000000     7.018000000    -2.983000000
H     4.743000000     7.686000000    -3.122000000
C     3.033000000     6.690000000    -4.008000000
H     3.319000000     6.971000000    -5.018000000
C     1.739000000     6.098000000    -3.727000000
O     0.790000000     5.759000000    -4.683000000
C     0.116000000     4.513000000    -4.664000000
C    -1.190000000     4.479000000    -5.135000000
H    -1.779000000     5.383000000    -5.270000000
C    -1.791000000     3.214000000    -5.287000000
O    -3.130000000     3.221000000    -5.601000000
C    -3.949000000     2.203000000    -5.241000000
C    -4.286000000     2.112000000    -3.915000000
H    -3.917000000     2.836000000    -3.193000000
C    -4.395000000     1.297000000    -6.168000000
H    -4.067000000     1.314000000    -7.204000000
C    -5.107000000     0.152000000    -5.795000000
H    -5.362000000    -0.667000000    -6.463000000
C    -5.327000000    -0.071000000    -4.447000000
H    -5.877000000    -0.974000000    -4.194000000
C    -4.964000000     0.965000000    -3.518000000
O    -5.435000000     0.830000000    -2.235000000
C    -5.141000000    -0.241000000    -1.452000000
C    -6.108000000    -0.657000000    -0.578000000
H    -6.985000000    -0.030000000    -0.439000000
C    -5.942000000    -1.805000000     0.162000000
O    -6.821000000    -1.966000000     1.257000000
C    -6.306000000    -2.091000000     2.533000000
C    -5.280000000    -1.218000000     3.036000000
H    -4.960000000    -0.338000000     2.484000000
C    -6.761000000    -3.160000000     3.291000000
H    -7.470000000    -3.911000000     2.951000000
C    -6.175000000    -3.362000000     4.516000000
H    -6.304000000    -4.289000000     5.069000000
C    -5.217000000    -2.541000000     5.027000000
H    -4.770000000    -2.667000000     6.010000000
C    -4.787000000    -1.522000000     4.295000000
O    -3.961000000    -0.607000000     4.805000000
C    -2.544000000    -0.759000000     5.092000000
C    -1.949000000     0.014000000     6.061000000
H    -2.589000000     0.572000000     6.740000000
C    -0.606000000     0.030000000     6.213000000
O    -0.110000000     0.791000000     7.194000000
C     0.974000000     1.661000000     6.842000000
C     2.243000000     1.601000000     7.481000000
H     2.335000000     1.022000000     8.396000000
C     3.409000000     2.280000000     7.019000000
H     4.294000000     2.331000000     7.648000000
C     3.165000000     3.177000000     5.985000000
H     4.009000000     3.778000000     5.655000000
C     1.944000000     3.390000000     5.381000000
C     0.864000000     2.635000000     5.839000000
H    -0.077000000     2.778000000     5.313000000
C    -2.235000000     1.388000000     0.821000000
H    -3.210000000     1.487000000     1.290000000
C    -1.605000000     0.176000000     0.684000000
H    -2.013000000    -0.745000000     1.093000000
C    -0.420000000     0.068000000    -0.031000000
H    -0.042000000    -0.954000000    -0.136000000
C     0.126000000     1.163000000    -0.588000000
H     1.100000000     1.115000000    -1.070000000
C    -0.414000000     2.455000000    -0.423000000
H     0.119000000     3.364000000    -0.689000000
C    -1.630000000     2.546000000     0.224000000
C    -2.302000000     3.913000000     0.447000000
O    -1.767000000     4.931000000     0.115000000
O    -3.201000000     3.951000000     1.296000000
O    -6.816000000     2.234000000     5.288000000
H    -7.263000000     3.080000000     5.323000000
H    -6.066000000     2.383000000     4.712000000
O    -5.121000000     8.333000000    -2.411000000
H    -4.581000000     7.800000000    -1.828000000
H    -5.038000000     9.223000000    -2.067000000
O    -4.092000000    10.418000000    -0.001000000
H    -4.824000000    10.591000000     0.591000000
H    -3.508000000     9.849000000     0.499000000
O    -7.303000000     6.144000000    -2.262000000
H    -7.126000000     5.906000000    -3.172000000
H    -6.580000000     6.724000000    -2.021000000
O    -5.053000000     5.495000000     4.365000000
H    -4.514000000     5.770000000     3.623000000
H    -5.817000000     6.072000000     4.333000000
O    -3.467000000     6.223000000     2.331000000
H    -3.307000000     5.385000000     1.897000000
H    -2.969000000     6.858000000     1.815000000
O    -1.329000000     7.615000000     1.095000000
H    -1.057000000     8.211000000     0.398000000
H    -1.160000000     6.741000000     0.742000000
O    -2.293000000     6.319000000    -2.207000000
H    -3.098000000     5.896000000    -2.507000000
H    -2.101000000     5.901000000    -1.368000000
O    -4.627000000     5.475000000    -3.482000000
H    -5.162000000     5.600000000    -2.699000000
H    -5.248000000     5.189000000    -4.153000000
O    -1.734000000     3.791000000     3.519000000
H    -0.834000000     3.907000000     3.214000000
H    -2.272000000     3.944000000     2.741000000
O    -5.135000000     3.034000000     3.139000000
H    -4.369000000     3.142000000     2.575000000
H    -5.142000000     3.819000000     3.687000000
O    -5.172000000     4.431000000    -0.282000000
H    -4.560000000     4.086000000     0.368000000
H    -5.334000000     5.332000000    -0.003000000
O    -1.401000000     8.711000000    -2.810000000
H    -1.655000000     7.794000000    -2.705000000
H    -1.013000000     8.753000000    -3.684000000
O    -7.902000000     2.223000000     1.819000000
H    -8.192000000     2.999000000     1.340000000
H    -6.989000000     2.405000000     2.040000000
O    -1.433000000     7.488000000     4.073000000
H    -1.821000000     7.441000000     3.199000000
H    -1.747000000     6.701000000     4.518000000
O    -0.257000000     9.654000000    -0.606000000
H    -0.540000000     9.400000000    -1.485000000
H    -0.423000000    10.595000000    -0.563000000
O    -5.625000000     7.109000000     0.503000000
H    -6.558000000     7.318000000     0.550000000
H    -5.306000000     7.235000000     1.397000000
O    -2.764000000     4.888000000     5.886000000
H    -2.369000000     4.403000000     5.161000000
H    -3.664000000     5.051000000     5.604000000
O    -7.145000000     2.734000000    -1.205000000
H    -6.704000000     2.164000000    -1.835000000
H    -6.500000000     3.412000000    -1.002000000
