215
-1468.57096
C     3.210000000     2.891000000    -0.307000000
H     2.364000000     3.234000000    -0.896000000
C     3.844000000     1.696000000    -0.657000000
C     4.862000000     1.196000000     0.179000000
H     5.405000000     0.293000000    -0.089000000
C     3.450000000     0.896000000    -1.914000000
O     3.274000000     1.796000000    -3.095000000
H     2.435000000     0.538000000    -1.689000000
O     4.399000000    -0.125000000    -2.207000000
C     3.778000000    -1.370000000    -2.303000000
C     3.763000000    -2.173000000    -1.173000000
H     4.350000000    -1.955000000    -0.285000000
C     2.973000000    -3.360000000    -1.214000000
O     2.821000000    -4.027000000    -0.069000000
C     2.172000000    -3.647000000    -2.342000000
C     1.148000000    -4.796000000    -2.351000000
H     0.799000000    -5.089000000    -3.343000000
C    -0.173000000    -4.467000000    -1.693000000
C    -1.257000000    -4.158000000    -2.490000000
H    -1.256000000    -4.250000000    -3.573000000
H     1.529000000    -5.697000000    -1.865000000
C     2.242000000    -2.827000000    -3.444000000
H     1.519000000    -2.976000000    -4.242000000
C     3.048000000    -1.735000000    -3.448000000
C     2.976000000    -0.812000000    -4.614000000
H     2.715000000    -1.418000000    -5.484000000
H     3.938000000    -0.391000000    -4.912000000
C     1.883000000     0.265000000    -4.415000000
C     0.621000000     0.000000000    -4.904000000
H     0.416000000    -0.959000000    -5.372000000
C     2.138000000     1.530000000    -3.886000000
C     1.139000000     2.504000000    -3.864000000
H     1.385000000     3.507000000    -3.526000000
C    -0.146000000     2.218000000    -4.252000000
O    -1.149000000     3.193000000    -4.066000000
C    -1.949000000     2.946000000    -2.905000000
C    -2.209000000     4.279000000    -2.139000000
C    -3.320000000     4.469000000    -1.264000000
H    -3.977000000     3.613000000    -1.126000000
C    -1.283000000     5.324000000    -2.068000000
H    -0.408000000     5.181000000    -2.698000000
O    -3.246000000     2.341000000    -3.310000000
H    -1.384000000     2.316000000    -2.203000000
C    -0.448000000     0.951000000    -4.805000000
C    -1.847000000     0.647000000    -5.326000000
H    -1.861000000    -0.084000000    -6.138000000
H    -2.142000000     1.588000000    -5.795000000
C    -2.687000000     0.138000000    -4.110000000
C    -2.901000000    -1.253000000    -4.059000000
H    -2.333000000    -1.944000000    -4.676000000
C    -3.323000000     0.948000000    -3.149000000
C    -4.041000000     0.425000000    -2.120000000
H    -4.490000000     1.020000000    -1.329000000
C    -4.170000000    -0.907000000    -1.953000000
O    -4.688000000    -1.392000000    -0.810000000
C    -3.709000000    -1.718000000     0.199000000
C    -3.906000000    -1.179000000     1.579000000
C    -4.071000000     0.222000000     1.832000000
H    -4.078000000     0.923000000     1.001000000
C    -3.721000000    -2.003000000     2.689000000
H    -3.307000000    -3.008000000     2.677000000
O    -3.566000000    -3.171000000     0.267000000
H    -2.696000000    -1.354000000    -0.028000000
C    -3.554000000    -1.796000000    -2.945000000
C    -3.565000000    -3.306000000    -2.712000000
H    -3.623000000    -3.841000000    -3.663000000
H    -4.502000000    -3.534000000    -2.201000000
C    -2.454000000    -3.797000000    -1.828000000
C    -2.515000000    -3.728000000    -0.385000000
C    -1.429000000    -4.191000000     0.344000000
H    -1.386000000    -4.190000000     1.431000000
C    -0.244000000    -4.533000000    -0.299000000
O     0.774000000    -4.903000000     0.496000000
C     1.670000000    -3.796000000     0.773000000
H     1.266000000    -2.833000000     0.427000000
C     2.075000000    -3.680000000     2.281000000
C     3.380000000    -3.413000000     2.564000000
H     4.159000000    -3.318000000     1.812000000
C     1.164000000    -3.896000000     3.388000000
H     0.180000000    -4.333000000     3.236000000
C     1.606000000    -3.707000000     4.696000000
O     0.722000000    -3.794000000     5.798000000
C     2.966000000    -3.386000000     4.904000000
H     3.315000000    -3.301000000     5.930000000
C     3.832000000    -3.175000000     3.877000000
O     5.178000000    -2.958000000     4.159000000
C     5.917000000    -2.208000000     3.245000000
C     5.581000000    -0.890000000     3.060000000
H     4.648000000    -0.545000000     3.497000000
C     7.103000000    -2.728000000     2.770000000
H     7.456000000    -3.729000000     3.005000000
C     7.964000000    -1.899000000     2.081000000
H     8.855000000    -2.277000000     1.587000000
C     7.600000000    -0.544000000     1.860000000
H     8.253000000     0.158000000     1.348000000
C     6.425000000     0.019000000     2.365000000
O     6.117000000     1.346000000     2.260000000
C     5.160000000     1.858000000     1.364000000
C     4.557000000     3.055000000     1.691000000
H     4.770000000     3.563000000     2.628000000
C     3.605000000     3.590000000     0.823000000
O     3.053000000     4.821000000     1.099000000
C     2.684000000     5.655000000     0.047000000
C     1.407000000     6.163000000     0.111000000
H     0.826000000     5.839000000     0.970000000
C     3.576000000     6.064000000    -0.926000000
H     4.516000000     5.532000000    -1.050000000
C     3.110000000     6.910000000    -1.929000000
H     3.738000000     7.043000000    -2.807000000
C     1.802000000     7.330000000    -1.990000000
H     1.438000000     7.844000000    -2.876000000
C     0.948000000     6.935000000    -0.970000000
O    -0.384000000     7.352000000    -1.028000000
C    -1.488000000     6.535000000    -1.372000000
C    -2.585000000     6.641000000    -0.504000000
H    -2.799000000     7.459000000     0.179000000
C    -3.502000000     5.616000000    -0.492000000
O    -4.551000000     5.645000000     0.481000000
C    -5.332000000     4.580000000     0.897000000
C    -4.809000000     3.757000000     1.909000000
H    -3.871000000     4.018000000     2.393000000
C    -6.541000000     4.254000000     0.289000000
H    -6.964000000     4.768000000    -0.571000000
C    -7.234000000     3.085000000     0.687000000
H    -8.102000000     2.822000000     0.087000000
C    -6.730000000     2.259000000     1.643000000
H    -7.311000000     1.365000000     1.849000000
C    -5.514000000     2.669000000     2.312000000
O    -4.957000000     1.907000000     3.291000000
C    -4.460000000     0.602000000     3.094000000
C    -4.472000000    -0.235000000     4.130000000
H    -4.806000000     0.216000000     5.061000000
C    -3.987000000    -1.544000000     3.980000000
O    -3.764000000    -2.276000000     5.143000000
C    -2.881000000    -3.334000000     5.232000000
C    -3.354000000    -4.587000000     5.570000000
H    -4.390000000    -4.912000000     5.624000000
C    -2.490000000    -5.620000000     5.928000000
H    -2.937000000    -6.587000000     6.142000000
C    -1.118000000    -5.387000000     5.977000000
H    -0.399000000    -6.156000000     6.245000000
C    -0.606000000    -4.101000000     5.682000000
C    -1.503000000    -3.064000000     5.299000000
H    -1.178000000    -2.041000000     5.129000000
C    -0.800000000     0.580000000     2.254000000
H    -0.988000000     0.379000000     3.306000000
C    -0.625000000    -0.498000000     1.376000000
H    -0.667000000    -1.518000000     1.748000000
C    -0.170000000    -0.228000000     0.156000000
H    -0.033000000    -1.015000000    -0.531000000
C    -0.057000000     1.122000000    -0.251000000
H     0.177000000     1.285000000    -1.300000000
C    -0.284000000     2.197000000     0.593000000
H    -0.228000000     3.243000000     0.303000000
C    -0.699000000     1.924000000     1.861000000
C    -0.907000000     2.955000000     2.931000000
O    -0.871000000     4.142000000     2.677000000
O    -0.892000000     2.655000000     4.103000000
O    -0.133000000     7.890000000     5.494000000
H     0.408000000     7.762000000     6.273000000
H    -0.901000000     7.339000000     5.642000000
O    -2.629000000     4.152000000     5.232000000
H    -2.798000000     3.659000000     6.034000000
H    -2.058000000     3.583000000     4.716000000
O     3.596000000     5.080000000     4.982000000
H     2.828000000     5.229000000     4.431000000
H     4.325000000     5.446000000     4.480000000
O     5.731000000     3.172000000     5.389000000
H     5.661000000     2.346000000     4.910000000
H     4.828000000     3.483000000     5.463000000
O     1.131000000     3.175000000     5.574000000
H     0.382000000     2.742000000     5.165000000
H     1.084000000     4.079000000     5.264000000
O     3.260000000     1.372000000     5.216000000
H     2.477000000     1.904000000     5.359000000
H     3.207000000     1.110000000     4.297000000
O    -6.335000000     5.361000000     5.972000000
H    -6.044000000     6.034000000     5.357000000
H    -6.981000000     5.803000000     6.523000000
O    -6.495000000     7.423000000     2.492000000
H    -5.748000000     6.877000000     2.736000000
H    -7.130000000     7.289000000     3.195000000
O    -3.492000000     8.837000000     2.416000000
H    -2.880000000     8.106000000     2.505000000
H    -4.060000000     8.586000000     1.687000000
O     2.098000000    -0.193000000     3.024000000
H     1.194000000     0.007000000     2.782000000
H     2.230000000    -1.096000000     2.734000000
O    -0.707000000     0.130000000     8.554000000
H     0.167000000    -0.221000000     8.385000000
H    -0.964000000     0.540000000     7.728000000
O    -1.627000000     1.052000000     6.186000000
H    -1.455000000     1.516000000     5.367000000
H    -2.488000000     1.365000000     6.463000000
O    -6.453000000     2.526000000     5.944000000
H    -6.615000000     3.451000000     6.129000000
H    -6.172000000     2.510000000     5.029000000
O    -1.817000000     6.726000000     3.111000000
H    -0.943000000     7.112000000     3.177000000
H    -1.661000000     5.782000000     3.095000000
O     1.317000000     5.313000000     3.530000000
H     1.856000000     5.232000000     2.743000000
H     0.498000000     4.870000000     3.305000000
O    -3.451000000     2.951000000     7.355000000
H    -3.374000000     3.375000000     8.210000000
H    -4.328000000     2.568000000     7.356000000
O     0.411000000     3.695000000     8.207000000
H     0.824000000     3.012000000     8.736000000
H     0.554000000     3.416000000     7.303000000
O    -1.550000000     6.060000000     6.954000000
H    -1.045000000     5.465000000     7.509000000
H    -1.801000000     5.527000000     6.199000000
O    -4.310000000     6.485000000     4.266000000
H    -4.078000000     5.637000000     4.642000000
H    -3.568000000     6.710000000     3.705000000
