215
-1459.61516
C     4.428000000     2.811000000    -0.592000000
H     3.647000000     3.313000000    -1.158000000
C     4.659000000     1.426000000    -0.874000000
C     5.515000000     0.815000000     0.023000000
H     5.750000000    -0.233000000    -0.146000000
C     3.830000000     0.705000000    -1.906000000
O     3.477000000     1.451000000    -3.081000000
H     2.878000000     0.495000000    -1.397000000
O     4.458000000    -0.551000000    -2.265000000
C     3.768000000    -1.750000000    -2.345000000
C     3.672000000    -2.542000000    -1.226000000
H     4.143000000    -2.181000000    -0.315000000
C     2.673000000    -3.547000000    -1.121000000
O     2.458000000    -4.060000000     0.106000000
C     1.968000000    -3.868000000    -2.282000000
C     0.923000000    -4.948000000    -2.186000000
H     0.813000000    -5.285000000    -3.218000000
C    -0.432000000    -4.468000000    -1.593000000
C    -1.456000000    -4.064000000    -2.446000000
H    -1.344000000    -4.179000000    -3.521000000
H     1.382000000    -5.697000000    -1.538000000
C     2.098000000    -3.075000000    -3.398000000
H     1.547000000    -3.295000000    -4.308000000
C     3.007000000    -2.031000000    -3.508000000
C     2.893000000    -1.053000000    -4.720000000
H     2.660000000    -1.728000000    -5.546000000
H     3.866000000    -0.607000000    -4.934000000
C     1.926000000     0.073000000    -4.455000000
C     0.631000000    -0.029000000    -4.944000000
H     0.264000000    -0.912000000    -5.461000000
C     2.310000000     1.228000000    -3.749000000
C     1.353000000     2.239000000    -3.513000000
H     1.691000000     3.121000000    -2.975000000
C     0.049000000     2.019000000    -3.887000000
O    -0.756000000     3.101000000    -3.645000000
C    -1.698000000     2.852000000    -2.574000000
C    -1.761000000     4.008000000    -1.577000000
C    -2.907000000     4.165000000    -0.796000000
H    -3.744000000     3.486000000    -0.939000000
C    -0.687000000     4.880000000    -1.378000000
H     0.278000000     4.762000000    -1.864000000
O    -2.968000000     2.515000000    -3.148000000
H    -1.474000000     1.936000000    -2.008000000
C    -0.341000000     0.928000000    -4.603000000
C    -1.718000000     0.785000000    -5.112000000
H    -1.634000000     0.155000000    -6.000000000
H    -1.945000000     1.731000000    -5.609000000
C    -2.628000000     0.256000000    -4.045000000
C    -2.869000000    -1.097000000    -4.001000000
H    -2.353000000    -1.804000000    -4.645000000
C    -3.278000000     1.130000000    -3.207000000
C    -4.136000000     0.641000000    -2.231000000
H    -4.607000000     1.296000000    -1.502000000
C    -4.267000000    -0.738000000    -2.112000000
O    -4.935000000    -1.149000000    -0.991000000
C    -4.043000000    -1.710000000     0.062000000
C    -4.598000000    -1.153000000     1.384000000
C    -5.329000000     0.030000000     1.393000000
H    -5.642000000     0.521000000     0.475000000
C    -3.988000000    -1.609000000     2.599000000
H    -3.226000000    -2.383000000     2.553000000
O    -3.975000000    -3.172000000     0.109000000
H    -3.035000000    -1.319000000    -0.141000000
C    -3.684000000    -1.673000000    -2.998000000
C    -3.737000000    -3.164000000    -2.777000000
H    -3.639000000    -3.624000000    -3.763000000
H    -4.714000000    -3.460000000    -2.390000000
C    -2.683000000    -3.754000000    -1.904000000
C    -2.857000000    -3.676000000    -0.498000000
C    -1.792000000    -3.943000000     0.331000000
H    -1.995000000    -3.967000000     1.399000000
C    -0.577000000    -4.432000000    -0.168000000
O     0.449000000    -4.797000000     0.697000000
C     1.358000000    -3.741000000     0.974000000
H     1.046000000    -2.757000000     0.593000000
C     1.796000000    -3.639000000     2.467000000
C     3.124000000    -3.330000000     2.793000000
H     3.933000000    -3.325000000     2.067000000
C     0.869000000    -3.655000000     3.500000000
H    -0.188000000    -3.792000000     3.288000000
C     1.250000000    -3.487000000     4.806000000
O     0.411000000    -3.720000000     5.938000000
C     2.624000000    -3.197000000     5.100000000
H     2.878000000    -3.226000000     6.156000000
C     3.571000000    -3.159000000     4.074000000
O     4.863000000    -2.776000000     4.371000000
C     5.777000000    -2.275000000     3.450000000
C     5.892000000    -0.919000000     3.112000000
H     5.190000000    -0.254000000     3.608000000
C     6.752000000    -3.146000000     2.933000000
H     6.709000000    -4.187000000     3.244000000
C     7.707000000    -2.729000000     2.082000000
H     8.402000000    -3.429000000     1.626000000
C     7.735000000    -1.377000000     1.719000000
H     8.572000000    -0.975000000     1.155000000
C     6.858000000    -0.455000000     2.251000000
O     7.005000000     0.881000000     1.970000000
C     6.214000000     1.515000000     1.028000000
C     5.914000000     2.867000000     1.197000000
H     6.304000000     3.377000000     2.074000000
C     4.986000000     3.501000000     0.401000000
O     4.622000000     4.831000000     0.745000000
C     3.728000000     5.589000000    -0.111000000
C     2.383000000     5.907000000     0.299000000
H     2.132000000     5.729000000     1.342000000
C     4.168000000     5.876000000    -1.446000000
H     5.135000000     5.484000000    -1.751000000
C     3.280000000     6.434000000    -2.330000000
H     3.524000000     6.687000000    -3.359000000
C     2.008000000     6.732000000    -1.879000000
H     1.308000000     6.996000000    -2.668000000
C     1.516000000     6.493000000    -0.561000000
O     0.232000000     6.753000000    -0.164000000
C    -0.815000000     5.942000000    -0.496000000
C    -1.992000000     6.114000000     0.223000000
H    -2.249000000     6.938000000     0.883000000
C    -3.024000000     5.233000000     0.014000000
O    -4.166000000     5.486000000     0.692000000
C    -5.285000000     4.681000000     0.873000000
C    -5.265000000     3.552000000     1.581000000
H    -4.371000000     3.356000000     2.167000000
C    -6.411000000     5.064000000     0.136000000
H    -6.372000000     5.980000000    -0.448000000
C    -7.525000000     4.231000000     0.070000000
H    -8.341000000     4.574000000    -0.560000000
C    -7.576000000     3.082000000     0.898000000
H    -8.498000000     2.512000000     0.981000000
C    -6.445000000     2.793000000     1.660000000
O    -6.497000000     1.769000000     2.620000000
C    -5.699000000     0.654000000     2.560000000
C    -5.189000000     0.165000000     3.735000000
H    -5.423000000     0.759000000     4.615000000
C    -4.375000000    -0.986000000     3.779000000
O    -3.725000000    -1.356000000     4.956000000
C    -2.946000000    -2.469000000     5.233000000
C    -3.694000000    -3.622000000     5.604000000
H    -4.777000000    -3.688000000     5.539000000
C    -3.065000000    -4.826000000     5.979000000
H    -3.580000000    -5.749000000     6.235000000
C    -1.667000000    -4.846000000     6.103000000
H    -1.160000000    -5.742000000     6.452000000
C    -0.975000000    -3.715000000     5.722000000
C    -1.560000000    -2.484000000     5.255000000
H    -0.979000000    -1.596000000     5.018000000
C    -0.740000000     0.354000000     2.104000000
H    -1.156000000     0.103000000     3.077000000
C    -0.606000000    -0.698000000     1.224000000
H    -0.839000000    -1.740000000     1.432000000
C     0.044000000    -0.449000000     0.082000000
H     0.128000000    -1.309000000    -0.570000000
C     0.472000000     0.824000000    -0.301000000
H     0.893000000     0.965000000    -1.293000000
C     0.250000000     1.894000000     0.516000000
H     0.519000000     2.909000000     0.235000000
C    -0.210000000     1.634000000     1.837000000
C    -0.433000000     2.739000000     2.848000000
O     0.405000000     3.586000000     2.907000000
O    -1.424000000     2.855000000     3.562000000
O     5.227000000     3.033000000     4.621000000
H     4.274000000     3.088000000     4.551000000
H     5.547000000     3.790000000     4.131000000
O    -2.913000000     5.073000000     3.656000000
H    -2.334000000     5.725000000     3.260000000
H    -2.494000000     4.234000000     3.467000000
O    -1.761000000     2.531000000     9.533000000
H    -2.196000000     2.629000000    10.380000000
H    -2.053000000     3.289000000     9.026000000
O    -2.452000000     5.077000000     8.728000000
H    -2.342000000     5.974000000     9.044000000
H    -2.031000000     5.073000000     7.868000000
O     0.934000000     4.988000000     5.206000000
H     0.832000000     4.411000000     4.449000000
H     0.851000000     5.872000000     4.846000000
O     2.916000000     0.416000000     5.813000000
H     2.722000000     0.986000000     5.068000000
H     3.872000000     0.383000000     5.846000000
O     0.925000000     2.525000000     8.105000000
H     0.046000000     2.654000000     8.462000000
H     0.960000000     1.594000000     7.886000000
O     3.005000000     0.792000000     2.132000000
H     3.721000000     0.336000000     1.689000000
H     2.225000000     0.557000000     1.629000000
O    -3.138000000     0.156000000     7.657000000
H    -2.471000000    -0.424000000     7.290000000
H    -3.294000000     0.806000000     6.971000000
O    -3.148000000     2.189000000     5.496000000
H    -2.833000000     2.203000000     4.592000000
H    -2.706000000     2.927000000     5.915000000
O     2.022000000     8.350000000     4.148000000
H     1.955000000     8.171000000     3.210000000
H     2.730000000     7.781000000     4.451000000
O    -5.173000000     5.903000000     5.158000000
H    -4.425000000     5.744000000     4.582000000
H    -4.863000000     5.649000000     6.028000000
O     1.511000000    -0.499000000     7.968000000
H     1.122000000    -1.316000000     7.657000000
H     1.907000000    -0.110000000     7.188000000
O    -0.435000000     6.078000000     2.840000000
H    -0.074000000     6.191000000     1.961000000
H    -0.347000000     5.141000000     3.016000000
O    -0.998000000     8.888000000     2.629000000
H    -1.220000000     9.499000000     3.332000000
H    -0.745000000     8.084000000     3.082000000
O     2.667000000     2.718000000     4.007000000
H     2.851000000     2.316000000     3.158000000
H     1.790000000     3.089000000     3.912000000
O    -1.461000000     4.836000000     6.128000000
H    -0.532000000     4.842000000     5.901000000
H    -1.912000000     4.727000000     5.291000000
O     2.577000000     4.771000000     7.224000000
H     1.892000000     4.295000000     7.693000000
H     2.244000000     4.851000000     6.330000000
O    -0.959000000     7.613000000     5.730000000
H    -1.719000000     8.009000000     6.158000000
H    -1.127000000     6.671000000     5.767000000
