215
-1432.73657
C     3.947000000     3.316000000    -1.352000000
H     3.506000000     3.485000000    -2.332000000
C     4.123000000     2.020000000    -0.922000000
C     4.683000000     1.762000000     0.365000000
H     4.882000000     0.725000000     0.624000000
C     3.747000000     0.807000000    -1.839000000
O     3.639000000     1.176000000    -3.241000000
H     2.737000000     0.441000000    -1.603000000
O     4.681000000    -0.278000000    -1.674000000
C     4.212000000    -1.559000000    -1.553000000
C     4.256000000    -2.110000000    -0.250000000
H     4.735000000    -1.532000000     0.536000000
C     3.644000000    -3.332000000    -0.025000000
O     3.583000000    -3.725000000     1.257000000
C     2.910000000    -3.943000000    -1.005000000
C     2.070000000    -5.067000000    -0.675000000
H     2.045000000    -5.667000000    -1.586000000
C     0.566000000    -4.728000000    -0.321000000
C    -0.397000000    -4.779000000    -1.335000000
H    -0.128000000    -5.042000000    -2.354000000
H     2.432000000    -5.598000000     0.208000000
C     2.916000000    -3.441000000    -2.316000000
H     2.448000000    -3.961000000    -3.147000000
C     3.590000000    -2.244000000    -2.572000000
C     3.601000000    -1.659000000    -3.977000000
H     3.545000000    -2.440000000    -4.738000000
H     4.566000000    -1.150000000    -4.042000000
C     2.452000000    -0.648000000    -4.127000000
C     1.272000000    -1.156000000    -4.664000000
H     1.157000000    -2.198000000    -4.950000000
C     2.529000000     0.711000000    -3.862000000
C     1.427000000     1.590000000    -3.977000000
H     1.460000000     2.609000000    -3.600000000
C     0.236000000     1.054000000    -4.362000000
O    -0.772000000     1.949000000    -4.318000000
C    -1.936000000     1.665000000    -3.452000000
C    -2.391000000     3.039000000    -2.902000000
C    -3.745000000     3.220000000    -2.439000000
H    -4.451000000     2.412000000    -2.613000000
C    -1.507000000     3.988000000    -2.521000000
H    -0.430000000     3.860000000    -2.601000000
O    -3.005000000     0.973000000    -4.148000000
H    -1.485000000     1.066000000    -2.647000000
C     0.124000000    -0.265000000    -4.823000000
C    -1.157000000    -0.754000000    -5.468000000
H    -0.933000000    -1.648000000    -6.053000000
H    -1.713000000    -0.097000000    -6.140000000
C    -2.117000000    -1.230000000    -4.355000000
C    -2.061000000    -2.510000000    -3.786000000
H    -1.402000000    -3.265000000    -4.209000000
C    -3.108000000    -0.362000000    -3.796000000
C    -3.971000000    -0.732000000    -2.732000000
H    -4.626000000     0.023000000    -2.304000000
C    -3.760000000    -1.944000000    -2.163000000
O    -4.468000000    -2.226000000    -1.008000000
C    -3.660000000    -2.197000000     0.249000000
C    -4.264000000    -1.408000000     1.417000000
C    -4.923000000    -0.201000000     1.133000000
H    -4.978000000     0.171000000     0.113000000
C    -4.082000000    -1.846000000     2.753000000
H    -3.402000000    -2.684000000     2.877000000
O    -3.299000000    -3.507000000     0.589000000
H    -2.738000000    -1.639000000     0.025000000
C    -2.922000000    -2.882000000    -2.695000000
C    -2.803000000    -4.289000000    -2.093000000
H    -2.562000000    -5.062000000    -2.825000000
H    -3.745000000    -4.578000000    -1.622000000
C    -1.720000000    -4.407000000    -1.035000000
C    -2.047000000    -3.996000000     0.317000000
C    -1.082000000    -4.055000000     1.309000000
H    -1.268000000    -3.822000000     2.354000000
C     0.220000000    -4.299000000     0.935000000
O     1.262000000    -4.233000000     1.877000000
C     2.309000000    -3.253000000     1.892000000
H     1.994000000    -2.375000000     1.310000000
C     2.407000000    -2.761000000     3.318000000
C     3.716000000    -2.357000000     3.639000000
H     4.625000000    -2.545000000     3.074000000
C     1.347000000    -2.466000000     4.170000000
H     0.316000000    -2.710000000     3.926000000
C     1.527000000    -1.711000000     5.302000000
O     0.380000000    -1.291000000     6.055000000
C     2.793000000    -1.336000000     5.601000000
H     2.869000000    -0.824000000     6.556000000
C     3.917000000    -1.697000000     4.828000000
O     5.172000000    -1.338000000     5.164000000
C     5.812000000    -0.420000000     4.364000000
C     5.127000000     0.640000000     3.776000000
H     4.097000000     0.911000000     3.996000000
C     7.190000000    -0.589000000     4.153000000
H     7.666000000    -1.361000000     4.752000000
C     7.858000000     0.282000000     3.264000000
H     8.886000000     0.118000000     2.954000000
C     7.184000000     1.296000000     2.639000000
H     7.737000000     2.035000000     2.065000000
C     5.846000000     1.505000000     2.961000000
O     5.372000000     2.688000000     2.536000000
C     4.807000000     2.834000000     1.274000000
C     4.506000000     4.192000000     0.852000000
H     4.546000000     5.004000000     1.573000000
C     4.126000000     4.368000000    -0.495000000
O     3.752000000     5.627000000    -0.912000000
C     2.670000000     5.833000000    -1.756000000
C     1.431000000     6.079000000    -1.165000000
H     1.262000000     5.962000000    -0.098000000
C     2.902000000     5.865000000    -3.061000000
H     3.896000000     5.565000000    -3.383000000
C     1.839000000     6.021000000    -4.024000000
H     1.986000000     5.959000000    -5.100000000
C     0.566000000     6.233000000    -3.482000000
H    -0.269000000     6.402000000    -4.156000000
C     0.307000000     6.259000000    -2.040000000
O    -0.977000000     6.146000000    -1.497000000
C    -1.879000000     5.167000000    -1.856000000
C    -3.255000000     5.350000000    -1.589000000
H    -3.615000000     6.306000000    -1.217000000
C    -4.230000000     4.397000000    -1.930000000
O    -5.541000000     4.617000000    -1.692000000
C    -6.300000000     3.750000000    -0.948000000
C    -5.807000000     3.224000000     0.220000000
H    -4.853000000     3.558000000     0.622000000
C    -7.567000000     3.400000000    -1.522000000
H    -8.057000000     3.741000000    -2.431000000
C    -8.287000000     2.448000000    -0.809000000
H    -9.197000000     2.085000000    -1.278000000
C    -7.859000000     1.900000000     0.377000000
H    -8.439000000     1.213000000     0.988000000
C    -6.585000000     2.244000000     0.914000000
O    -6.106000000     1.737000000     2.095000000
C    -5.477000000     0.498000000     2.254000000
C    -5.378000000     0.015000000     3.585000000
H    -5.820000000     0.579000000     4.402000000
C    -4.563000000    -1.078000000     3.829000000
O    -4.281000000    -1.494000000     5.145000000
C    -3.136000000    -2.086000000     5.575000000
C    -3.224000000    -3.181000000     6.460000000
H    -4.203000000    -3.541000000     6.765000000
C    -2.175000000    -3.740000000     7.090000000
H    -2.342000000    -4.637000000     7.681000000
C    -0.879000000    -3.210000000     6.880000000
H    -0.073000000    -3.600000000     7.496000000
C    -0.810000000    -2.031000000     6.083000000
C    -1.897000000    -1.461000000     5.413000000
H    -1.777000000    -0.613000000     4.744000000
C     0.471000000     0.760000000     2.472000000
H     0.490000000     0.558000000     3.540000000
C     0.229000000    -0.295000000     1.618000000
H     0.111000000    -1.299000000     2.018000000
C     0.365000000    -0.117000000     0.235000000
H     0.176000000    -0.987000000    -0.423000000
C     0.619000000     1.113000000    -0.281000000
H     0.602000000     1.161000000    -1.367000000
C     0.931000000     2.172000000     0.577000000
H     1.348000000     3.100000000     0.196000000
C     0.775000000     2.026000000     2.002000000
C     1.261000000     3.141000000     2.977000000
O     1.394000000     4.259000000     2.636000000
O     1.370000000     2.874000000     4.167000000
O    -2.422000000     1.552000000     2.291000000
H    -2.519000000     1.977000000     1.439000000
H    -1.598000000     1.069000000     2.226000000
O     1.104000000     8.356000000     2.363000000
H     1.765000000     8.969000000     2.685000000
H     1.174000000     8.408000000     1.410000000
O     0.656000000     5.462000000     5.105000000
H     1.357000000     5.932000000     4.652000000
H     0.598000000     4.623000000     4.649000000
O    -1.311000000     4.972000000     1.736000000
H    -0.408000000     4.779000000     1.990000000
H    -1.251000000     5.791000000     1.244000000
O     5.133000000     6.210000000     4.734000000
H     4.329000000     6.154000000     4.217000000
H     4.999000000     6.968000000     5.304000000
O    -4.029000000     4.690000000     3.270000000
H    -4.219000000     5.617000000     3.415000000
H    -3.160000000     4.684000000     2.868000000
O    -2.169000000     3.848000000     7.359000000
H    -2.202000000     2.922000000     7.122000000
H    -2.352000000     4.311000000     6.541000000
O     1.508000000     1.515000000     8.205000000
H     2.073000000     2.161000000     7.781000000
H     0.848000000     1.305000000     7.546000000
O    -0.788000000     7.801000000     3.944000000
H    -0.556000000     7.030000000     4.461000000
H    -0.002000000     7.992000000     3.432000000
O    -3.419000000     2.479000000     4.950000000
H    -3.169000000     1.948000000     4.193000000
H    -3.565000000     3.354000000     4.591000000
O     3.381000000     2.474000000     5.936000000
H     3.773000000     3.346000000     5.888000000
H     2.606000000     2.530000000     5.377000000
O     0.082000000     1.648000000     6.078000000
H     0.401000000     2.335000000     5.492000000
H     0.208000000     0.836000000     5.586000000
O    -0.185000000     5.861000000     7.942000000
H     0.262000000     5.762000000     7.102000000
H    -0.848000000     5.170000000     7.943000000
O     2.678000000     6.308000000     3.643000000
H     2.325000000     5.511000000     3.247000000
H     2.454000000     7.003000000     3.024000000
O     6.143000000     8.346000000     2.542000000
H     5.972000000     7.468000000     2.882000000
H     5.429000000     8.881000000     2.890000000
O     3.663000000     8.471000000     5.673000000
H     3.053000000     7.858000000     5.261000000
H     3.826000000     9.133000000     5.001000000
O    -2.550000000     8.235000000     1.511000000
H    -2.324000000     7.912000000     2.383000000
H    -3.099000000     9.002000000     1.674000000
O    -3.791000000     6.211000000     5.813000000
H    -4.049000000     6.540000000     4.952000000
H    -4.580000000     6.299000000     6.349000000
O     7.857000000     5.111000000     5.019000000
H     7.007000000     5.236000000     4.598000000
H     7.687000000     5.256000000     5.950000000
