215
-1452.33291
C    -1.271000000     1.906000000    -4.027000000
H    -1.778000000     0.978000000    -3.776000000
C     0.087000000     1.942000000    -4.328000000
C     0.710000000     3.174000000    -4.602000000
H     1.762000000     3.270000000    -4.856000000
C     0.901000000     0.677000000    -4.328000000
O     0.245000000    -0.372000000    -5.027000000
H     0.863000000     0.348000000    -3.279000000
O     2.296000000     0.973000000    -4.805000000
C     3.221000000     0.492000000    -3.885000000
C     3.646000000     1.406000000    -2.863000000
H     3.512000000     2.468000000    -3.052000000
C     4.435000000     0.910000000    -1.831000000
O     4.695000000     1.791000000    -0.748000000
C     4.654000000    -0.440000000    -1.703000000
C     5.510000000    -1.000000000    -0.577000000
H     5.950000000    -1.914000000    -0.981000000
C     4.707000000    -1.349000000     0.619000000
C     4.255000000    -2.690000000     0.803000000
H     4.582000000    -3.478000000     0.129000000
H     6.313000000    -0.313000000    -0.303000000
C     3.980000000    -1.350000000    -2.555000000
H     4.255000000    -2.394000000    -2.429000000
C     3.363000000    -0.898000000    -3.734000000
C     2.656000000    -1.827000000    -4.763000000
H     3.329000000    -2.681000000    -4.863000000
H     2.562000000    -1.383000000    -5.756000000
C     1.255000000    -2.339000000    -4.246000000
C     1.197000000    -3.565000000    -3.579000000
H     2.122000000    -4.128000000    -3.484000000
C     0.115000000    -1.648000000    -4.512000000
C    -1.126000000    -1.999000000    -3.959000000
H    -1.980000000    -1.362000000    -4.177000000
C    -1.230000000    -3.145000000    -3.175000000
O    -2.451000000    -3.408000000    -2.629000000
C    -2.665000000    -3.348000000    -1.232000000
C    -4.126000000    -2.900000000    -0.975000000
C    -4.804000000    -3.277000000     0.141000000
H    -4.388000000    -4.065000000     0.763000000
C    -4.714000000    -1.908000000    -1.780000000
H    -4.234000000    -1.613000000    -2.710000000
O    -2.339000000    -4.546000000    -0.478000000
H    -2.078000000    -2.539000000    -0.773000000
C    -0.064000000    -3.960000000    -3.033000000
C    -0.057000000    -5.196000000    -2.183000000
H     0.833000000    -5.718000000    -2.538000000
H    -0.932000000    -5.833000000    -2.331000000
C     0.070000000    -4.927000000    -0.673000000
C     1.272000000    -4.972000000    -0.064000000
H     2.127000000    -5.085000000    -0.724000000
C    -1.097000000    -4.713000000     0.058000000
C    -1.024000000    -4.367000000     1.406000000
H    -1.985000000    -4.148000000     1.863000000
C     0.216000000    -4.283000000     2.057000000
O     0.302000000    -3.672000000     3.301000000
C     0.671000000    -2.280000000     3.427000000
C    -0.251000000    -1.527000000     4.379000000
C    -1.583000000    -1.644000000     4.268000000
H    -1.947000000    -2.461000000     3.651000000
C     0.232000000    -0.426000000     5.098000000
H     1.295000000    -0.203000000     5.142000000
O     2.080000000    -2.211000000     3.701000000
H     0.393000000    -1.863000000     2.447000000
C     1.373000000    -4.551000000     1.271000000
C     2.724000000    -4.427000000     2.003000000
H     3.438000000    -5.202000000     1.714000000
H     2.586000000    -4.546000000     3.079000000
C     3.366000000    -3.022000000     1.897000000
C     2.894000000    -1.965000000     2.686000000
C     3.456000000    -0.714000000     2.629000000
H     3.168000000    -0.063000000     3.451000000
C     4.275000000    -0.410000000     1.536000000
O     4.625000000     0.950000000     1.448000000
C     3.920000000     1.686000000     0.472000000
H     2.956000000     1.211000000     0.237000000
C     3.485000000     3.016000000     0.993000000
C     3.161000000     4.066000000     0.149000000
H     3.416000000     4.006000000    -0.906000000
C     3.245000000     3.212000000     2.441000000
H     3.512000000     2.405000000     3.118000000
C     2.708000000     4.405000000     2.920000000
O     2.575000000     4.686000000     4.287000000
C     2.200000000     5.313000000     1.985000000
H     1.565000000     6.108000000     2.368000000
C     2.400000000     5.191000000     0.666000000
O     1.888000000     6.221000000    -0.079000000
C     2.111000000     6.328000000    -1.406000000
C     1.260000000     5.780000000    -2.320000000
H     0.345000000     5.272000000    -2.027000000
C     3.115000000     7.143000000    -1.835000000
H     3.710000000     7.534000000    -1.013000000
C     3.450000000     7.320000000    -3.174000000
H     4.236000000     8.024000000    -3.435000000
C     2.609000000     6.708000000    -4.103000000
H     2.767000000     6.875000000    -5.166000000
C     1.509000000     6.017000000    -3.674000000
O     0.691000000     5.545000000    -4.591000000
C    -0.032000000     4.340000000    -4.499000000
C    -1.382000000     4.273000000    -4.147000000
H    -1.920000000     5.158000000    -3.816000000
C    -2.018000000     3.060000000    -3.898000000
O    -3.310000000     3.051000000    -3.468000000
C    -4.145000000     1.969000000    -3.772000000
C    -4.922000000     1.346000000    -2.778000000
H    -4.771000000     1.625000000    -1.738000000
C    -4.317000000     1.564000000    -5.106000000
H    -3.836000000     2.054000000    -5.950000000
C    -5.193000000     0.499000000    -5.443000000
H    -5.257000000     0.318000000    -6.513000000
C    -5.922000000    -0.141000000    -4.419000000
H    -6.394000000    -1.107000000    -4.584000000
C    -5.750000000     0.294000000    -3.097000000
O    -6.501000000    -0.350000000    -2.148000000
C    -5.957000000    -1.401000000    -1.476000000
C    -6.698000000    -1.866000000    -0.312000000
H    -7.599000000    -1.349000000     0.009000000
C    -6.042000000    -2.815000000     0.486000000
O    -6.701000000    -3.270000000     1.596000000
C    -6.082000000    -3.152000000     2.833000000
C    -5.261000000    -2.070000000     3.120000000
H    -5.001000000    -1.350000000     2.349000000
C    -6.422000000    -4.036000000     3.832000000
H    -7.097000000    -4.833000000     3.531000000
C    -5.878000000    -3.868000000     5.116000000
H    -6.187000000    -4.501000000     5.944000000
C    -4.954000000    -2.886000000     5.358000000
H    -4.472000000    -2.740000000     6.321000000
C    -4.613000000    -1.939000000     4.351000000
O    -3.862000000    -0.858000000     4.699000000
C    -2.487000000    -0.853000000     4.991000000
C    -1.970000000     0.195000000     5.728000000
H    -2.573000000     0.905000000     6.289000000
C    -0.606000000     0.451000000     5.784000000
O    -0.157000000     1.449000000     6.605000000
C     0.938000000     2.175000000     6.406000000
C     1.906000000     2.156000000     7.402000000
H     1.773000000     1.461000000     8.227000000
C     3.050000000     2.975000000     7.461000000
H     3.635000000     2.950000000     8.378000000
C     3.349000000     3.703000000     6.356000000
H     4.267000000     4.285000000     6.357000000
C     2.401000000     3.811000000     5.285000000
C     1.165000000     3.083000000     5.321000000
H     0.506000000     3.184000000     4.462000000
C    -2.454000000     0.315000000     0.975000000
H    -3.463000000     0.191000000     1.362000000
C    -1.578000000    -0.789000000     0.882000000
H    -1.991000000    -1.717000000     1.269000000
C    -0.354000000    -0.763000000     0.242000000
H     0.262000000    -1.631000000     0.238000000
C     0.121000000     0.416000000    -0.243000000
H     1.082000000     0.402000000    -0.751000000
C    -0.664000000     1.615000000    -0.063000000
H    -0.277000000     2.481000000    -0.593000000
C    -1.958000000     1.542000000     0.539000000
C    -2.776000000     2.793000000     0.712000000
O    -2.343000000     3.872000000     0.288000000
O    -3.833000000     2.839000000     1.334000000
O    -7.976000000     2.672000000     4.849000000
H    -7.761000000     3.557000000     5.143000000
H    -7.676000000     2.643000000     3.940000000
O    -5.327000000     6.753000000    -0.649000000
H    -5.651000000     7.091000000     0.186000000
H    -5.375000000     7.500000000    -1.245000000
O    -3.885000000     6.198000000     5.641000000
H    -3.780000000     6.302000000     4.696000000
H    -4.589000000     6.805000000     5.872000000
O    -3.692000000     6.202000000     2.623000000
H    -3.367000000     5.458000000     2.115000000
H    -2.906000000     6.699000000     2.848000000
O    -0.944000000     6.034000000     1.286000000
H    -0.131000000     6.020000000     0.783000000
H    -1.423000000     5.260000000     0.988000000
O    -3.003000000     5.738000000    -1.716000000
H    -3.743000000     6.077000000    -1.212000000
H    -2.745000000     4.940000000    -1.255000000
O    -5.809000000     4.787000000    -3.547000000
H    -5.189000000     4.228000000    -3.079000000
H    -6.421000000     4.176000000    -3.958000000
O    -3.192000000     2.773000000     3.964000000
H    -3.485000000     2.771000000     3.053000000
H    -2.485000000     2.128000000     3.990000000
O    -4.952000000     0.711000000     6.963000000
H    -4.834000000     1.610000000     7.270000000
H    -5.177000000     0.802000000     6.037000000
O    -6.312000000     2.308000000     2.173000000
H    -5.680000000     2.870000000     1.725000000
H    -5.804000000     1.876000000     2.859000000
O    -5.427000000     3.991000000    -0.504000000
H    -4.683000000     3.780000000     0.060000000
H    -5.558000000     4.932000000    -0.385000000
O    -6.782000000     0.283000000     4.727000000
H    -7.235000000    -0.302000000     4.120000000
H    -7.473000000     0.614000000     5.301000000
O    -8.263000000     1.144000000     0.523000000
H    -7.780000000     0.952000000    -0.281000000
H    -7.655000000     1.664000000     1.049000000
O    -3.328000000     6.916000000    -4.424000000
H    -3.536000000     6.292000000    -3.729000000
H    -3.045000000     6.372000000    -5.158000000
O    -1.253000000     8.690000000     0.996000000
H    -1.214000000     7.735000000     0.955000000
H    -0.392000000     8.979000000     0.694000000
O    -5.655000000     7.762000000     2.057000000
H    -6.499000000     7.474000000     2.405000000
H    -5.044000000     7.071000000     2.312000000
O    -4.530000000     3.415000000     6.226000000
H    -3.956000000     3.144000000     5.509000000
H    -4.589000000     4.367000000     6.139000000
O    -1.652000000     7.758000000     3.538000000
H    -0.959000000     7.200000000     3.892000000
H    -1.196000000     8.367000000     2.957000000
O    -8.047000000     4.338000000    -1.333000000
H    -8.097000000     4.069000000    -2.250000000
H    -7.162000000     4.098000000    -1.060000000
