215
-1458.31036
C     3.898000000     3.040000000    -1.769000000
H     3.187000000     3.242000000    -2.566000000
C     4.121000000     1.744000000    -1.521000000
C     4.896000000     1.448000000    -0.414000000
H     5.168000000     0.439000000    -0.116000000
C     3.464000000     0.648000000    -2.346000000
O     3.045000000     1.115000000    -3.665000000
H     2.544000000     0.429000000    -1.783000000
O     4.357000000    -0.492000000    -2.430000000
C     3.763000000    -1.758000000    -2.279000000
C     3.998000000    -2.409000000    -1.078000000
H     4.805000000    -2.011000000    -0.467000000
C     3.122000000    -3.474000000    -0.674000000
O     3.103000000    -3.857000000     0.680000000
C     2.217000000    -4.009000000    -1.632000000
C     1.361000000    -5.224000000    -1.368000000
H     1.137000000    -5.858000000    -2.229000000
C     0.055000000    -4.816000000    -0.742000000
C    -1.047000000    -4.700000000    -1.578000000
H    -1.018000000    -4.924000000    -2.641000000
H     1.875000000    -5.909000000    -0.691000000
C     2.130000000    -3.398000000    -2.896000000
H     1.492000000    -3.826000000    -3.665000000
C     2.880000000    -2.271000000    -3.164000000
C     2.651000000    -1.621000000    -4.541000000
H     2.464000000    -2.339000000    -5.342000000
H     3.577000000    -1.140000000    -4.863000000
C     1.577000000    -0.572000000    -4.554000000
C     0.272000000    -0.862000000    -4.867000000
H    -0.024000000    -1.867000000    -5.154000000
C     1.903000000     0.772000000    -4.215000000
C     0.954000000     1.749000000    -4.246000000
H     1.285000000     2.747000000    -3.970000000
C    -0.334000000     1.501000000    -4.629000000
O    -1.229000000     2.468000000    -4.423000000
C    -1.872000000     2.269000000    -3.122000000
C    -2.076000000     3.512000000    -2.266000000
C    -3.019000000     3.569000000    -1.246000000
H    -3.643000000     2.709000000    -1.018000000
C    -1.105000000     4.466000000    -2.279000000
H    -0.364000000     4.489000000    -3.074000000
O    -3.224000000     1.595000000    -3.354000000
H    -1.293000000     1.540000000    -2.536000000
C    -0.701000000     0.150000000    -4.842000000
C    -2.122000000    -0.342000000    -5.157000000
H    -2.147000000    -1.232000000    -5.789000000
H    -2.817000000     0.322000000    -5.676000000
C    -2.883000000    -0.741000000    -3.860000000
C    -3.012000000    -2.085000000    -3.495000000
H    -2.605000000    -2.803000000    -4.202000000
C    -3.373000000     0.258000000    -2.983000000
C    -3.966000000    -0.119000000    -1.730000000
H    -4.290000000     0.645000000    -1.027000000
C    -4.156000000    -1.509000000    -1.476000000
O    -4.714000000    -1.855000000    -0.333000000
C    -3.915000000    -2.153000000     0.807000000
C    -4.390000000    -1.558000000     2.126000000
C    -5.035000000    -0.308000000     2.095000000
H    -5.311000000     0.080000000     1.118000000
C    -4.084000000    -2.060000000     3.390000000
H    -3.657000000    -3.053000000     3.510000000
O    -3.621000000    -3.561000000     0.851000000
H    -2.943000000    -1.671000000     0.626000000
C    -3.600000000    -2.466000000    -2.289000000
C    -3.525000000    -3.974000000    -1.965000000
H    -3.530000000    -4.587000000    -2.869000000
H    -4.483000000    -4.180000000    -1.484000000
C    -2.345000000    -4.310000000    -1.057000000
C    -2.446000000    -3.963000000     0.298000000
C    -1.287000000    -3.988000000     1.078000000
H    -1.266000000    -3.738000000     2.136000000
C    -0.082000000    -4.345000000     0.584000000
O     0.959000000    -4.535000000     1.449000000
C     1.987000000    -3.476000000     1.440000000
H     1.544000000    -2.634000000     0.888000000
C     2.365000000    -2.855000000     2.804000000
C     3.640000000    -2.575000000     3.110000000
H     4.385000000    -3.151000000     2.567000000
C     1.349000000    -2.561000000     3.719000000
H     0.310000000    -2.765000000     3.472000000
C     1.631000000    -1.828000000     4.871000000
O     0.527000000    -1.491000000     5.642000000
C     2.988000000    -1.510000000     5.173000000
H     3.217000000    -0.836000000     5.994000000
C     3.961000000    -1.843000000     4.306000000
O     5.260000000    -1.590000000     4.591000000
C     6.149000000    -1.170000000     3.563000000
C     5.995000000     0.175000000     3.202000000
H     5.507000000     0.868000000     3.882000000
C     7.014000000    -1.963000000     2.857000000
H     7.056000000    -3.045000000     2.952000000
C     7.583000000    -1.461000000     1.694000000
H     8.292000000    -2.060000000     1.128000000
C     7.336000000    -0.160000000     1.282000000
H     7.809000000     0.196000000     0.370000000
C     6.521000000     0.684000000     1.998000000
O     6.188000000     2.024000000     1.557000000
C     5.484000000     2.419000000     0.386000000
C     5.305000000     3.771000000     0.100000000
H     5.974000000     4.540000000     0.478000000
C     4.461000000     4.046000000    -0.984000000
O     4.354000000     5.428000000    -1.283000000
C     3.209000000     5.892000000    -1.990000000
C     1.965000000     5.828000000    -1.408000000
H     1.910000000     5.484000000    -0.378000000
C     3.377000000     6.532000000    -3.211000000
H     4.352000000     6.592000000    -3.687000000
C     2.344000000     7.164000000    -3.859000000
H     2.586000000     7.634000000    -4.809000000
C     1.116000000     7.171000000    -3.214000000
H     0.265000000     7.689000000    -3.650000000
C     0.932000000     6.533000000    -1.993000000
O    -0.229000000     6.607000000    -1.410000000
C    -1.135000000     5.624000000    -1.404000000
C    -2.141000000     5.675000000    -0.461000000
H    -2.237000000     6.496000000     0.245000000
C    -3.076000000     4.666000000    -0.348000000
O    -3.996000000     4.723000000     0.653000000
C    -5.071000000     3.900000000     0.759000000
C    -5.177000000     2.938000000     1.785000000
H    -4.333000000     2.896000000     2.469000000
C    -6.189000000     4.206000000     0.044000000
H    -6.077000000     4.947000000    -0.744000000
C    -7.414000000     3.705000000     0.381000000
H    -8.257000000     4.051000000    -0.212000000
C    -7.490000000     2.710000000     1.325000000
H    -8.421000000     2.219000000     1.595000000
C    -6.351000000     2.274000000     1.994000000
O    -6.411000000     1.479000000     3.080000000
C    -5.552000000     0.323000000     3.169000000
C    -5.221000000    -0.171000000     4.464000000
H    -5.497000000     0.459000000     5.306000000
C    -4.472000000    -1.372000000     4.569000000
O    -4.194000000    -1.929000000     5.811000000
C    -2.940000000    -2.457000000     6.078000000
C    -2.913000000    -3.774000000     6.632000000
H    -3.815000000    -4.345000000     6.839000000
C    -1.647000000    -4.333000000     6.942000000
H    -1.528000000    -5.335000000     7.346000000
C    -0.473000000    -3.584000000     6.619000000
H     0.501000000    -4.011000000     6.845000000
C    -0.554000000    -2.301000000     6.020000000
C    -1.779000000    -1.765000000     5.699000000
H    -1.854000000    -0.760000000     5.292000000
C    -0.840000000     0.936000000     1.931000000
H    -1.346000000     0.703000000     2.865000000
C    -0.670000000    -0.098000000     0.961000000
H    -0.948000000    -1.124000000     1.191000000
C    -0.160000000     0.165000000    -0.302000000
H    -0.134000000    -0.695000000    -0.992000000
C     0.302000000     1.456000000    -0.625000000
H     0.648000000     1.734000000    -1.618000000
C     0.140000000     2.445000000     0.335000000
H     0.327000000     3.472000000     0.033000000
C    -0.402000000     2.217000000     1.597000000
C    -0.632000000     3.357000000     2.523000000
O     0.111000000     4.331000000     2.466000000
O    -1.532000000     3.330000000     3.351000000
O    -3.312000000     5.255000000     3.462000000
H    -3.641000000     5.346000000     2.567000000
H    -2.591000000     4.630000000     3.389000000
O     2.818000000     6.031000000     2.068000000
H     3.619000000     6.066000000     2.591000000
H     2.772000000     5.125000000     1.761000000
O     0.980000000     5.361000000     4.704000000
H     1.765000000     5.770000000     4.339000000
H     0.563000000     4.934000000     3.956000000
O    -4.423000000     8.913000000     3.494000000
H    -3.637000000     8.465000000     3.807000000
H    -4.201000000     9.843000000     3.536000000
O    -0.025000000     7.104000000     2.057000000
H     0.156000000     6.179000000     2.224000000
H     0.831000000     7.485000000     1.863000000
O     4.095000000     3.003000000     4.773000000
H     3.699000000     2.453000000     4.098000000
H     3.352000000     3.352000000     5.265000000
O     0.040000000     1.669000000     5.855000000
H     0.154000000     0.933000000     5.254000000
H    -0.901000000     1.840000000     5.850000000
O    -1.650000000     3.666000000     9.178000000
H    -1.978000000     3.792000000     8.288000000
H    -2.166000000     2.936000000     9.522000000
O    -1.213000000     8.814000000     0.374000000
H    -1.035000000     8.262000000     1.136000000
H    -0.682000000     8.435000000    -0.326000000
O    -3.537000000     3.897000000     7.083000000
H    -4.206000000     4.396000000     6.614000000
H    -4.005000000     3.497000000     7.816000000
O     2.783000000     0.373000000     2.182000000
H     1.913000000     0.070000000     1.920000000
H     3.362000000    -0.364000000     1.986000000
O    -2.647000000     2.040000000     5.329000000
H    -2.503000000     2.476000000     4.489000000
H    -3.072000000     2.703000000     5.873000000
O     1.897000000     3.504000000     6.433000000
H     1.527000000     4.308000000     6.068000000
H     1.277000000     2.820000000     6.182000000
O     2.570000000     3.096000000     2.289000000
H     2.446000000     2.204000000     1.964000000
H     1.682000000     3.432000000     2.411000000
O     0.124000000     7.947000000     6.327000000
H     0.652000000     8.044000000     5.534000000
H    -0.357000000     7.129000000     6.195000000
O    -1.946000000     7.635000000     4.225000000
H    -2.487000000     6.863000000     4.058000000
H    -1.193000000     7.530000000     3.644000000
O     2.070000000     8.462000000     4.163000000
H     2.934000000     8.156000000     3.887000000
H     2.078000000     9.401000000     3.980000000
O    -1.191000000     5.469000000     6.562000000
H    -1.983000000     4.965000000     6.747000000
H    -0.840000000     5.079000000     5.762000000
O    -5.141000000     5.574000000     5.381000000
H    -4.375000000     5.591000000     4.808000000
H    -5.652000000     6.340000000     5.121000000
