215
-1447.92374
C     3.930000000     2.769000000    -1.333000000
H     3.139000000     3.033000000    -2.030000000
C     4.337000000     1.436000000    -1.340000000
C     5.313000000     0.996000000    -0.449000000
H     5.642000000    -0.035000000    -0.340000000
C     3.629000000     0.420000000    -2.290000000
O     3.321000000     0.891000000    -3.615000000
H     2.624000000     0.174000000    -1.916000000
O     4.312000000    -0.780000000    -2.381000000
C     3.620000000    -1.934000000    -2.338000000
C     3.619000000    -2.582000000    -1.084000000
H     4.198000000    -2.173000000    -0.261000000
C     2.792000000    -3.684000000    -0.848000000
O     2.667000000    -4.166000000     0.405000000
C     1.975000000    -4.226000000    -1.873000000
C     0.899000000    -5.253000000    -1.591000000
H     0.751000000    -5.721000000    -2.566000000
C    -0.381000000    -4.752000000    -0.987000000
C    -1.459000000    -4.472000000    -1.791000000
H    -1.380000000    -4.689000000    -2.853000000
H     1.312000000    -6.046000000    -0.964000000
C     1.975000000    -3.570000000    -3.133000000
H     1.329000000    -3.975000000    -3.908000000
C     2.766000000    -2.397000000    -3.348000000
C     2.738000000    -1.674000000    -4.688000000
H     2.484000000    -2.357000000    -5.503000000
H     3.647000000    -1.123000000    -4.937000000
C     1.740000000    -0.530000000    -4.699000000
C     0.384000000    -0.767000000    -4.993000000
H     0.183000000    -1.771000000    -5.360000000
C     2.020000000     0.703000000    -4.169000000
C     1.064000000     1.713000000    -4.008000000
H     1.263000000     2.723000000    -3.659000000
C    -0.279000000     1.430000000    -4.345000000
O    -1.237000000     2.363000000    -4.088000000
C    -1.992000000     2.277000000    -2.892000000
C    -1.907000000     3.527000000    -1.992000000
C    -2.735000000     3.664000000    -0.883000000
H    -3.352000000     2.799000000    -0.651000000
C    -0.982000000     4.616000000    -2.267000000
H    -0.218000000     4.456000000    -3.024000000
O    -3.321000000     1.832000000    -3.066000000
H    -1.370000000     1.640000000    -2.246000000
C    -0.633000000     0.172000000    -4.768000000
C    -2.066000000    -0.008000000    -5.167000000
H    -2.047000000    -0.862000000    -5.847000000
H    -2.609000000     0.811000000    -5.643000000
C    -2.907000000    -0.434000000    -3.854000000
C    -3.182000000    -1.768000000    -3.658000000
H    -2.650000000    -2.481000000    -4.283000000
C    -3.519000000     0.498000000    -3.013000000
C    -4.394000000     0.030000000    -2.065000000
H    -4.852000000     0.752000000    -1.393000000
C    -4.546000000    -1.279000000    -1.728000000
O    -5.136000000    -1.608000000    -0.522000000
C    -4.177000000    -1.791000000     0.522000000
C    -4.604000000    -1.096000000     1.802000000
C    -5.456000000     0.021000000     1.791000000
H    -5.914000000     0.331000000     0.855000000
C    -4.039000000    -1.493000000     3.046000000
H    -3.298000000    -2.282000000     3.141000000
O    -3.833000000    -3.174000000     0.774000000
H    -3.238000000    -1.378000000     0.124000000
C    -3.857000000    -2.189000000    -2.535000000
C    -3.789000000    -3.687000000    -2.249000000
H    -3.700000000    -4.311000000    -3.141000000
H    -4.768000000    -3.868000000    -1.801000000
C    -2.665000000    -4.010000000    -1.242000000
C    -2.782000000    -3.790000000     0.157000000
C    -1.715000000    -4.170000000     0.936000000
H    -1.786000000    -3.937000000     1.995000000
C    -0.538000000    -4.597000000     0.425000000
O     0.588000000    -4.730000000     1.234000000
C     1.597000000    -3.716000000     1.186000000
H     1.149000000    -2.826000000     0.720000000
C     2.083000000    -3.322000000     2.618000000
C     3.399000000    -2.960000000     2.803000000
H     4.115000000    -3.085000000     1.994000000
C     1.173000000    -3.169000000     3.639000000
H     0.103000000    -3.292000000     3.488000000
C     1.628000000    -2.507000000     4.808000000
O     0.767000000    -1.901000000     5.683000000
C     2.982000000    -2.174000000     4.983000000
H     3.268000000    -1.699000000     5.919000000
C     3.879000000    -2.466000000     3.998000000
O     5.206000000    -2.201000000     4.143000000
C     6.099000000    -1.596000000     3.351000000
C     5.800000000    -0.360000000     2.635000000
H     4.785000000     0.029000000     2.652000000
C     7.364000000    -2.138000000     3.334000000
H     7.530000000    -3.113000000     3.784000000
C     8.391000000    -1.522000000     2.597000000
H     9.324000000    -2.069000000     2.483000000
C     8.127000000    -0.233000000     1.966000000
H     8.949000000     0.316000000     1.514000000
C     6.856000000     0.306000000     2.011000000
O     6.632000000     1.533000000     1.472000000
C     5.711000000     1.870000000     0.549000000
C     5.385000000     3.213000000     0.547000000
H     5.740000000     3.872000000     1.335000000
C     4.436000000     3.694000000    -0.412000000
O     3.933000000     4.954000000    -0.273000000
C     3.245000000     5.554000000    -1.296000000
C     1.921000000     5.827000000    -1.087000000
H     1.429000000     5.547000000    -0.159000000
C     3.798000000     5.754000000    -2.545000000
H     4.831000000     5.438000000    -2.663000000
C     3.153000000     6.409000000    -3.508000000
H     3.531000000     6.714000000    -4.481000000
C     1.837000000     6.751000000    -3.271000000
H     1.297000000     7.335000000    -4.012000000
C     1.185000000     6.553000000    -2.029000000
O    -0.108000000     6.778000000    -1.785000000
C    -0.985000000     5.773000000    -1.466000000
C    -1.896000000     5.847000000    -0.426000000
H    -1.857000000     6.751000000     0.176000000
C    -2.818000000     4.844000000    -0.160000000
O    -3.480000000     4.935000000     0.996000000
C    -4.729000000     4.426000000     1.159000000
C    -5.011000000     3.248000000     1.887000000
H    -4.181000000     2.762000000     2.394000000
C    -5.809000000     5.123000000     0.487000000
H    -5.552000000     5.982000000    -0.127000000
C    -7.098000000     4.761000000     0.751000000
H    -7.868000000     5.435000000     0.382000000
C    -7.380000000     3.593000000     1.481000000
H    -8.421000000     3.285000000     1.532000000
C    -6.372000000     2.877000000     2.117000000
O    -6.764000000     1.747000000     2.908000000
C    -5.844000000     0.671000000     2.963000000
C    -5.399000000     0.196000000     4.195000000
H    -5.747000000     0.626000000     5.131000000
C    -4.502000000    -0.869000000     4.265000000
O    -3.975000000    -1.344000000     5.474000000
C    -2.863000000    -2.114000000     5.734000000
C    -3.052000000    -3.416000000     6.268000000
H    -4.042000000    -3.796000000     6.508000000
C    -1.924000000    -4.159000000     6.636000000
H    -2.099000000    -5.180000000     6.966000000
C    -0.629000000    -3.648000000     6.355000000
H     0.242000000    -4.250000000     6.599000000
C    -0.488000000    -2.414000000     5.849000000
C    -1.579000000    -1.646000000     5.522000000
H    -1.420000000    -0.641000000     5.140000000
C    -1.090000000     0.867000000     2.308000000
H    -1.579000000     0.802000000     3.277000000
C    -0.901000000    -0.324000000     1.583000000
H    -1.353000000    -1.242000000     1.950000000
C    -0.281000000    -0.354000000     0.268000000
H    -0.153000000    -1.341000000    -0.165000000
C     0.130000000     0.899000000    -0.240000000
H     0.498000000     0.888000000    -1.263000000
C     0.021000000     2.080000000     0.524000000
H     0.395000000     3.020000000     0.126000000
C    -0.578000000     2.100000000     1.784000000
C    -0.462000000     3.339000000     2.654000000
O     0.252000000     4.284000000     2.367000000
O    -1.009000000     3.344000000     3.767000000
O    -3.144000000     5.148000000     3.805000000
H    -3.410000000     5.117000000     2.886000000
H    -2.465000000     4.477000000     3.880000000
O     3.113000000     6.974000000     3.798000000
H     2.973000000     7.756000000     4.332000000
H     3.705000000     7.262000000     3.103000000
O    -0.235000000     0.556000000     7.390000000
H    -0.356000000    -0.321000000     7.754000000
H    -1.098000000     0.964000000     7.458000000
O     0.939000000     5.462000000     4.871000000
H     1.722000000     5.788000000     4.427000000
H     0.442000000     5.017000000     4.185000000
O    -2.122000000     8.409000000     2.869000000
H    -1.955000000     7.858000000     3.634000000
H    -1.274000000     8.804000000     2.668000000
O     0.679000000     6.813000000     1.687000000
H     0.371000000     5.924000000     1.862000000
H     1.548000000     6.849000000     2.087000000
O     4.342000000     4.483000000     3.559000000
H     3.806000000     3.950000000     2.973000000
H     3.889000000     5.325000000     3.599000000
O     3.609000000     3.217000000     5.839000000
H     3.796000000     3.694000000     5.031000000
H     2.767000000     2.791000000     5.677000000
O     1.204000000     2.224000000     5.618000000
H     0.633000000     1.625000000     6.099000000
H     0.612000000     2.887000000     5.264000000
O    -2.251000000     3.155000000     8.821000000
H    -1.831000000     3.028000000     7.970000000
H    -2.483000000     2.271000000     9.108000000
O     0.528000000     9.533000000     0.095000000
H     0.661000000     8.688000000     0.525000000
H     1.346000000     9.694000000    -0.375000000
O    -4.465000000     3.219000000     5.427000000
H    -4.124000000     3.974000000     4.948000000
H    -5.411000000     3.363000000     5.459000000
O     2.158000000     0.175000000     2.426000000
H     1.844000000     0.049000000     3.322000000
H     1.448000000    -0.152000000     1.875000000
O    -1.820000000     2.893000000     6.195000000
H    -1.529000000     3.127000000     5.314000000
H    -2.775000000     2.944000000     6.154000000
O     1.655000000     4.577000000     7.466000000
H     1.264000000     5.160000000     6.815000000
H     2.011000000     3.851000000     6.953000000
O     2.662000000     3.095000000     2.251000000
H     2.605000000     2.150000000     2.110000000
H     1.803000000     3.428000000     1.990000000
O    -1.162000000     7.130000000     5.458000000
H    -1.865000000     6.542000000     5.182000000
H    -0.365000000     6.607000000     5.373000000
O     0.322000000     9.376000000     4.697000000
H     1.062000000     9.129000000     5.251000000
H    -0.343000000     8.711000000     4.875000000
O    -3.860000000     6.559000000     6.517000000
H    -4.254000000     5.793000000     6.102000000
H    -4.330000000     7.304000000     6.142000000
