215
-1457.19614
C     4.325000000     2.169000000    -1.786000000
H     3.626000000     2.627000000    -2.480000000
C     4.262000000     0.812000000    -1.566000000
C     5.122000000     0.267000000    -0.586000000
H     5.256000000    -0.809000000    -0.508000000
C     3.445000000    -0.129000000    -2.474000000
O     3.173000000     0.536000000    -3.775000000
H     2.505000000    -0.179000000    -1.904000000
O     4.027000000    -1.413000000    -2.678000000
C     3.064000000    -2.430000000    -2.590000000
C     3.159000000    -3.094000000    -1.399000000
H     3.964000000    -2.880000000    -0.700000000
C     2.195000000    -4.091000000    -1.097000000
O     2.058000000    -4.537000000     0.200000000
C     1.164000000    -4.388000000    -2.032000000
C    -0.030000000    -5.303000000    -1.555000000
H    -0.295000000    -5.870000000    -2.450000000
C    -1.208000000    -4.487000000    -0.929000000
C    -2.308000000    -4.087000000    -1.684000000
H    -2.267000000    -4.138000000    -2.769000000
H     0.309000000    -5.987000000    -0.774000000
C     1.172000000    -3.732000000    -3.343000000
H     0.318000000    -3.935000000    -3.984000000
C     2.132000000    -2.799000000    -3.625000000
C     2.033000000    -2.005000000    -4.908000000
H     1.675000000    -2.579000000    -5.766000000
H     3.052000000    -1.783000000    -5.229000000
C     1.210000000    -0.724000000    -4.723000000
C    -0.108000000    -0.720000000    -5.084000000
H    -0.605000000    -1.633000000    -5.400000000
C     1.851000000     0.427000000    -4.237000000
C     1.075000000     1.568000000    -4.029000000
H     1.473000000     2.501000000    -3.639000000
C    -0.278000000     1.587000000    -4.301000000
O    -0.986000000     2.723000000    -3.996000000
C    -1.690000000     2.647000000    -2.749000000
C    -1.422000000     3.840000000    -1.837000000
C    -2.297000000     4.084000000    -0.771000000
H    -3.190000000     3.479000000    -0.640000000
C    -0.333000000     4.653000000    -2.091000000
H     0.234000000     4.588000000    -3.016000000
O    -3.084000000     2.382000000    -2.998000000
H    -1.307000000     1.771000000    -2.206000000
C    -0.907000000     0.408000000    -4.839000000
C    -2.379000000     0.402000000    -5.031000000
H    -2.719000000    -0.238000000    -5.848000000
H    -2.723000000     1.377000000    -5.382000000
C    -3.194000000     0.094000000    -3.753000000
C    -3.608000000    -1.186000000    -3.478000000
H    -3.524000000    -1.883000000    -4.308000000
C    -3.470000000     1.090000000    -2.800000000
C    -4.178000000     0.804000000    -1.625000000
H    -4.291000000     1.657000000    -0.962000000
C    -4.643000000    -0.440000000    -1.356000000
O    -5.208000000    -0.661000000    -0.146000000
C    -4.314000000    -1.170000000     0.864000000
C    -4.537000000    -0.493000000     2.269000000
C    -4.994000000     0.824000000     2.412000000
H    -5.307000000     1.358000000     1.518000000
C    -4.322000000    -1.276000000     3.420000000
H    -3.921000000    -2.280000000     3.306000000
O    -4.436000000    -2.686000000     0.965000000
H    -3.327000000    -0.969000000     0.421000000
C    -4.363000000    -1.435000000    -2.345000000
C    -4.601000000    -2.875000000    -1.916000000
H    -4.667000000    -3.433000000    -2.852000000
H    -5.548000000    -3.021000000    -1.393000000
C    -3.396000000    -3.423000000    -1.150000000
C    -3.432000000    -3.299000000     0.251000000
C    -2.373000000    -3.678000000     1.014000000
H    -2.357000000    -3.457000000     2.078000000
C    -1.214000000    -4.145000000     0.475000000
O    -0.108000000    -4.418000000     1.336000000
C     1.193000000    -3.832000000     1.071000000
H     1.073000000    -2.822000000     0.652000000
C     1.861000000    -3.523000000     2.418000000
C     3.218000000    -3.394000000     2.662000000
H     3.924000000    -3.721000000     1.902000000
C     1.055000000    -3.171000000     3.563000000
H    -0.001000000    -2.971000000     3.398000000
C     1.567000000    -2.773000000     4.846000000
O     0.709000000    -2.133000000     5.699000000
C     2.892000000    -2.611000000     4.935000000
H     3.356000000    -2.102000000     5.776000000
C     3.724000000    -2.908000000     3.882000000
O     5.080000000    -2.710000000     4.062000000
C     5.983000000    -2.284000000     3.093000000
C     5.842000000    -1.088000000     2.423000000
H     4.931000000    -0.518000000     2.583000000
C     7.124000000    -3.067000000     2.886000000
H     7.218000000    -4.059000000     3.321000000
C     8.036000000    -2.690000000     1.906000000
H     8.975000000    -3.222000000     1.780000000
C     7.912000000    -1.439000000     1.262000000
H     8.749000000    -1.020000000     0.710000000
C     6.834000000    -0.599000000     1.597000000
O     6.854000000     0.657000000     1.163000000
C     5.988000000     1.140000000     0.140000000
C     5.993000000     2.479000000    -0.088000000
H     6.654000000     3.124000000     0.484000000
C     5.137000000     2.964000000    -1.037000000
O     5.230000000     4.376000000    -1.151000000
C     4.331000000     5.188000000    -1.764000000
C     2.990000000     5.286000000    -1.314000000
H     2.668000000     4.649000000    -0.494000000
C     4.749000000     5.887000000    -2.867000000
H     5.749000000     5.781000000    -3.279000000
C     3.855000000     6.745000000    -3.479000000
H     4.172000000     7.289000000    -4.365000000
C     2.607000000     7.032000000    -2.961000000
H     1.853000000     7.697000000    -3.376000000
C     2.176000000     6.198000000    -1.963000000
O     0.982000000     6.537000000    -1.346000000
C    -0.097000000     5.688000000    -1.206000000
C    -1.003000000     6.008000000    -0.222000000
H    -0.884000000     6.883000000     0.412000000
C    -2.099000000     5.149000000     0.026000000
O    -2.916000000     5.608000000     1.009000000
C    -4.136000000     4.969000000     1.257000000
C    -4.350000000     4.234000000     2.418000000
H    -3.507000000     4.063000000     3.083000000
C    -5.199000000     5.158000000     0.402000000
H    -5.110000000     5.718000000    -0.525000000
C    -6.453000000     4.623000000     0.692000000
H    -7.307000000     4.781000000     0.039000000
C    -6.637000000     3.827000000     1.847000000
H    -7.601000000     3.408000000     2.126000000
C    -5.590000000     3.643000000     2.668000000
O    -5.737000000     2.754000000     3.746000000
C    -5.145000000     1.429000000     3.594000000
C    -4.939000000     0.704000000     4.798000000
H    -5.169000000     1.187000000     5.744000000
C    -4.469000000    -0.668000000     4.692000000
O    -4.051000000    -1.398000000     5.826000000
C    -2.949000000    -2.215000000     5.874000000
C    -3.184000000    -3.476000000     6.402000000
H    -4.225000000    -3.724000000     6.592000000
C    -2.167000000    -4.383000000     6.490000000
H    -2.189000000    -5.440000000     6.745000000
C    -0.851000000    -3.897000000     6.331000000
H    -0.021000000    -4.550000000     6.587000000
C    -0.555000000    -2.589000000     5.804000000
C    -1.631000000    -1.720000000     5.638000000
H    -1.424000000    -0.686000000     5.374000000
C    -0.944000000     1.898000000     2.163000000
H    -1.590000000     1.883000000     3.037000000
C    -1.030000000     0.810000000     1.272000000
H    -1.708000000    -0.024000000     1.430000000
C    -0.159000000     0.744000000     0.088000000
H    -0.138000000    -0.059000000    -0.618000000
C     0.745000000     1.798000000    -0.045000000
H     1.369000000     1.943000000    -0.924000000
C     0.660000000     2.914000000     0.766000000
H     1.277000000     3.787000000     0.570000000
C    -0.121000000     2.916000000     1.894000000
C    -0.037000000     4.039000000     2.863000000
O     0.954000000     4.680000000     2.857000000
O    -0.873000000     4.098000000     3.764000000
O    -1.238000000     6.582000000     4.479000000
H    -0.843000000     6.612000000     5.350000000
H    -1.046000000     5.701000000     4.159000000
O    -1.170000000     4.064000000     8.086000000
H    -1.560000000     3.575000000     7.362000000
H    -0.268000000     3.745000000     8.132000000
O     5.644000000     4.316000000     2.648000000
H     4.820000000     3.889000000     2.413000000
H     5.824000000     4.907000000     1.918000000
O     0.630000000     9.601000000     0.958000000
H     0.474000000    10.425000000     0.496000000
H    -0.153000000     9.475000000     1.494000000
O    -0.188000000     6.598000000     6.900000000
H    -0.805000000     5.942000000     7.224000000
H    -0.450000000     7.409000000     7.336000000
O     1.980000000     7.054000000     1.711000000
H     1.574000000     6.270000000     2.080000000
H     1.268000000     7.692000000     1.662000000
O     2.973000000     2.539000000     6.366000000
H     3.305000000     3.299000000     5.888000000
H     3.751000000     2.009000000     6.541000000
O     1.500000000     3.319000000     8.485000000
H     1.821000000     4.186000000     8.234000000
H     1.895000000     2.724000000     7.847000000
O     2.310000000     0.938000000     2.661000000
H     2.274000000     0.172000000     3.234000000
H     1.528000000     0.866000000     2.115000000
O     1.470000000     0.437000000     7.410000000
H     1.398000000    -0.333000000     6.846000000
H     1.494000000     1.177000000     6.803000000
O    -4.875000000     4.917000000     5.824000000
H    -5.797000000     4.660000000     5.798000000
H    -4.714000000     5.139000000     6.742000000
O     4.000000000     4.842000000     5.050000000
H     3.195000000     5.359000000     5.059000000
H     4.127000000     4.612000000     4.130000000
O    -2.504000000     3.160000000     5.804000000
H    -2.033000000     3.322000000     4.986000000
H    -3.314000000     3.663000000     5.717000000
O     4.498000000     7.986000000     0.643000000
H     5.315000000     7.502000000     0.764000000
H     3.844000000     7.473000000     1.117000000
O     3.282000000     3.490000000     2.477000000
H     2.943000000     2.650000000     2.785000000
H     2.542000000     4.091000000     2.556000000
O     1.713000000     5.743000000     5.116000000
H     1.095000000     5.216000000     4.609000000
H     1.194000000     6.090000000     5.841000000
O     3.174000000     8.349000000     4.504000000
H     2.748000000     7.665000000     3.987000000
H     3.282000000     9.078000000     3.893000000
O    -1.013000000     9.154000000     3.567000000
H    -1.023000000     8.283000000     3.964000000
H    -1.197000000     9.751000000     4.293000000
O    -4.005000000     6.984000000     4.364000000
H    -4.225000000     6.109000000     4.684000000
H    -3.051000000     6.976000000     4.280000000
