215
-1478.07670
C    -1.096000000     1.864000000    -4.301000000
H    -1.511000000     0.872000000    -4.140000000
C     0.272000000     2.012000000    -4.425000000
C     0.755000000     3.342000000    -4.397000000
H     1.832000000     3.486000000    -4.427000000
C     1.170000000     0.795000000    -4.166000000
O     0.819000000    -0.370000000    -5.003000000
H     1.006000000     0.515000000    -3.115000000
O     2.572000000     1.030000000    -4.405000000
C     3.423000000     0.463000000    -3.424000000
C     3.720000000     1.261000000    -2.365000000
H     3.447000000     2.305000000    -2.496000000
C     4.381000000     0.792000000    -1.221000000
O     4.521000000     1.768000000    -0.199000000
C     4.807000000    -0.574000000    -1.211000000
C     5.596000000    -1.113000000    -0.018000000
H     6.244000000    -1.954000000    -0.272000000
C     4.675000000    -1.474000000     1.091000000
C     4.026000000    -2.681000000     1.151000000
H     4.299000000    -3.399000000     0.382000000
H     6.224000000    -0.306000000     0.366000000
C     4.577000000    -1.387000000    -2.322000000
H     4.742000000    -2.460000000    -2.374000000
C     3.777000000    -0.905000000    -3.431000000
C     3.264000000    -1.881000000    -4.485000000
H     3.955000000    -2.727000000    -4.504000000
H     3.322000000    -1.468000000    -5.494000000
C     1.851000000    -2.407000000    -4.110000000
C     1.682000000    -3.680000000    -3.444000000
H     2.535000000    -4.337000000    -3.294000000
C     0.697000000    -1.635000000    -4.381000000
C    -0.561000000    -2.077000000    -4.028000000
H    -1.460000000    -1.507000000    -4.248000000
C    -0.681000000    -3.327000000    -3.364000000
O    -1.895000000    -3.606000000    -2.876000000
C    -2.322000000    -3.306000000    -1.507000000
C    -3.726000000    -2.700000000    -1.452000000
C    -4.296000000    -2.402000000    -0.264000000
H    -3.790000000    -2.708000000     0.648000000
C    -4.355000000    -2.383000000    -2.665000000
H    -3.959000000    -2.516000000    -3.669000000
O    -2.184000000    -4.553000000    -0.698000000
H    -1.672000000    -2.497000000    -1.142000000
C     0.447000000    -4.090000000    -3.031000000
C     0.366000000    -5.283000000    -2.051000000
H     1.260000000    -5.897000000    -2.173000000
H    -0.421000000    -5.998000000    -2.300000000
C     0.180000000    -4.973000000    -0.568000000
C     1.358000000    -4.822000000     0.203000000
H     2.327000000    -5.121000000    -0.191000000
C    -1.065000000    -4.734000000     0.072000000
C    -1.146000000    -4.373000000     1.399000000
H    -2.079000000    -4.104000000     1.887000000
C     0.064000000    -4.146000000     2.091000000
O     0.023000000    -3.571000000     3.359000000
C     0.399000000    -2.190000000     3.558000000
C    -0.612000000    -1.475000000     4.452000000
C    -1.933000000    -1.899000000     4.577000000
H    -2.326000000    -2.847000000     4.219000000
C    -0.217000000    -0.223000000     4.952000000
H     0.790000000     0.110000000     4.714000000
O     1.776000000    -2.111000000     4.003000000
H     0.326000000    -1.690000000     2.581000000
C     1.286000000    -4.426000000     1.520000000
C     2.557000000    -4.339000000     2.273000000
H     3.175000000    -5.177000000     1.946000000
H     2.285000000    -4.470000000     3.323000000
C     3.155000000    -2.998000000     2.151000000
C     2.804000000    -1.962000000     3.083000000
C     3.439000000    -0.728000000     3.082000000
H     3.121000000     0.092000000     3.722000000
C     4.307000000    -0.514000000     2.072000000
O     4.667000000     0.811000000     1.904000000
C     3.833000000     1.537000000     0.985000000
H     2.908000000     1.016000000     0.698000000
C     3.355000000     2.857000000     1.587000000
C     2.664000000     3.764000000     0.788000000
H     2.709000000     3.509000000    -0.268000000
C     3.523000000     3.074000000     2.962000000
H     3.929000000     2.279000000     3.580000000
C     2.879000000     4.222000000     3.492000000
O     2.932000000     4.448000000     4.841000000
C     2.129000000     5.116000000     2.710000000
H     1.615000000     5.939000000     3.200000000
C     2.096000000     4.931000000     1.341000000
O     1.413000000     5.851000000     0.550000000
C     1.729000000     6.173000000    -0.765000000
C     1.012000000     5.597000000    -1.794000000
H     0.280000000     4.811000000    -1.624000000
C     2.529000000     7.262000000    -1.007000000
H     3.019000000     7.677000000    -0.130000000
C     2.799000000     7.719000000    -2.359000000
H     3.640000000     8.386000000    -2.529000000
C     1.987000000     7.169000000    -3.401000000
H     2.042000000     7.520000000    -4.428000000
C     1.098000000     6.156000000    -3.091000000
O     0.389000000     5.739000000    -4.084000000
C    -0.106000000     4.431000000    -4.239000000
C    -1.452000000     4.218000000    -4.150000000
H    -2.149000000     5.001000000    -3.864000000
C    -1.940000000     2.937000000    -4.177000000
O    -3.279000000     2.775000000    -4.094000000
C    -3.975000000     1.810000000    -4.754000000
C    -4.505000000     0.756000000    -3.963000000
H    -4.387000000     0.741000000    -2.883000000
C    -4.110000000     1.871000000    -6.088000000
H    -3.573000000     2.659000000    -6.609000000
C    -4.932000000     0.951000000    -6.709000000
H    -4.970000000     0.952000000    -7.795000000
C    -5.614000000    -0.010000000    -5.965000000
H    -6.299000000    -0.654000000    -6.510000000
C    -5.341000000    -0.218000000    -4.577000000
O    -6.055000000    -1.209000000    -3.873000000
C    -5.576000000    -1.751000000    -2.666000000
C    -6.227000000    -1.444000000    -1.460000000
H    -7.173000000    -0.909000000    -1.450000000
C    -5.572000000    -1.767000000    -0.230000000
O    -6.171000000    -1.461000000     0.975000000
C    -5.904000000    -2.088000000     2.222000000
C    -5.227000000    -1.465000000     3.245000000
H    -4.774000000    -0.480000000     3.166000000
C    -6.458000000    -3.341000000     2.393000000
H    -6.925000000    -3.864000000     1.562000000
C    -6.085000000    -4.062000000     3.564000000
H    -6.442000000    -5.087000000     3.634000000
C    -5.390000000    -3.448000000     4.613000000
H    -5.137000000    -3.980000000     5.526000000
C    -4.981000000    -2.081000000     4.430000000
O    -4.148000000    -1.519000000     5.426000000
C    -2.853000000    -1.051000000     5.165000000
C    -2.502000000     0.208000000     5.703000000
H    -3.296000000     0.737000000     6.224000000
C    -1.172000000     0.603000000     5.537000000
O    -0.847000000     1.860000000     6.010000000
C     0.421000000     2.261000000     6.277000000
C     1.010000000     1.993000000     7.510000000
H     0.507000000     1.317000000     8.197000000
C     2.303000000     2.525000000     7.855000000
H     2.827000000     2.245000000     8.766000000
C     2.922000000     3.410000000     6.951000000
H     3.921000000     3.802000000     7.119000000
C     2.305000000     3.579000000     5.744000000
C     1.077000000     3.082000000     5.413000000
H     0.719000000     3.382000000     4.432000000
C    -2.403000000     0.347000000     0.921000000
H    -3.366000000     0.170000000     1.394000000
C    -1.524000000    -0.716000000     0.922000000
H    -1.881000000    -1.635000000     1.379000000
C    -0.276000000    -0.670000000     0.382000000
H     0.297000000    -1.608000000     0.381000000
C     0.135000000     0.510000000    -0.190000000
H     1.146000000     0.620000000    -0.575000000
C    -0.679000000     1.623000000    -0.215000000
H    -0.356000000     2.573000000    -0.634000000
C    -2.048000000     1.539000000     0.336000000
C    -3.008000000     2.655000000     0.275000000
O    -2.657000000     3.799000000     0.465000000
O    -4.209000000     2.350000000     0.284000000
O    -4.179000000     8.742000000    -0.458000000
H    -3.794000000     9.062000000     0.358000000
H    -4.215000000     7.792000000    -0.349000000
O    -0.906000000     8.324000000    -1.487000000
H    -1.169000000     9.200000000    -1.205000000
H    -1.023000000     8.334000000    -2.437000000
O    -7.086000000     4.708000000     0.426000000
H    -7.021000000     3.786000000     0.176000000
H    -6.277000000     4.884000000     0.907000000
O    -7.710000000     6.918000000    -1.210000000
H    -7.746000000     6.123000000    -0.678000000
H    -7.476000000     6.610000000    -2.085000000
O    -4.494000000     5.243000000     2.118000000
H    -4.574000000     4.560000000     2.784000000
H    -3.951000000     4.849000000     1.435000000
O    -1.425000000     5.239000000     2.405000000
H    -1.665000000     6.029000000     1.921000000
H    -1.511000000     4.531000000     1.767000000
O    -2.732000000     8.306000000     3.369000000
H    -2.165000000     8.043000000     2.644000000
H    -3.604000000     8.372000000     2.980000000
O    -3.407000000     6.077000000    -0.881000000
H    -3.984000000     5.915000000    -1.628000000
H    -3.490000000     5.292000000    -0.340000000
O    -5.135000000     4.627000000    -2.708000000
H    -4.577000000     3.860000000    -2.576000000
H    -5.988000000     4.264000000    -2.947000000
O    -2.841000000     2.970000000     3.753000000
H    -2.366000000     3.698000000     3.352000000
H    -2.253000000     2.647000000     4.436000000
O    -5.354000000     2.020000000     2.762000000
H    -4.864000000     1.971000000     1.942000000
H    -4.788000000     2.520000000     3.350000000
O    -6.301000000     2.379000000    -1.294000000
H    -5.511000000     2.349000000    -0.755000000
H    -6.561000000     1.463000000    -1.389000000
O    -7.849000000     0.468000000     2.145000000
H    -7.548000000    -0.230000000     1.563000000
H    -7.102000000     1.064000000     2.210000000
O    -4.373000000     6.217000000    -4.783000000
H    -4.443000000     5.622000000    -4.037000000
H    -5.260000000     6.557000000    -4.902000000
O    -1.736000000     7.323000000     0.830000000
H    -2.353000000     6.856000000     0.266000000
H    -1.171000000     7.800000000     0.222000000
O    -6.925000000     3.492000000    -5.059000000
H    -7.502000000     2.919000000    -5.564000000
H    -6.057000000     3.101000000    -5.155000000
O    -3.849000000     6.080000000     5.332000000
H    -2.926000000     6.107000000     5.082000000
H    -4.320000000     6.327000000     4.536000000
O    -5.182000000     8.100000000     2.138000000
H    -5.947000000     8.246000000     1.581000000
H    -5.134000000     7.149000000     2.234000000
O    -1.102000000     5.635000000     5.261000000
H    -0.291000000     5.927000000     5.677000000
H    -0.844000000     5.407000000     4.368000000
