215
-1475.05190
C     4.236000000     3.374000000    -1.694000000
H     3.727000000     3.488000000    -2.648000000
C     4.485000000     2.136000000    -1.132000000
C     5.061000000     2.164000000     0.121000000
H     5.182000000     1.199000000     0.607000000
C     3.926000000     0.899000000    -1.755000000
O     3.805000000     1.086000000    -3.205000000
H     2.925000000     0.566000000    -1.443000000
O     4.799000000    -0.263000000    -1.470000000
C     4.135000000    -1.508000000    -1.257000000
C     4.102000000    -1.996000000     0.005000000
H     4.456000000    -1.369000000     0.819000000
C     3.314000000    -3.140000000     0.297000000
O     3.084000000    -3.418000000     1.617000000
C     2.746000000    -3.900000000    -0.753000000
C     2.092000000    -5.201000000    -0.457000000
H     2.159000000    -5.822000000    -1.352000000
C     0.575000000    -5.050000000    -0.138000000
C    -0.379000000    -4.896000000    -1.187000000
H     0.017000000    -4.991000000    -2.195000000
H     2.597000000    -5.745000000     0.344000000
C     2.949000000    -3.417000000    -2.051000000
H     2.650000000    -4.027000000    -2.900000000
C     3.678000000    -2.249000000    -2.292000000
C     3.740000000    -1.716000000    -3.787000000
H     3.802000000    -2.464000000    -4.580000000
H     4.716000000    -1.228000000    -3.839000000
C     2.606000000    -0.783000000    -4.105000000
C     1.473000000    -1.334000000    -4.674000000
H     1.374000000    -2.401000000    -4.854000000
C     2.661000000     0.581000000    -3.775000000
C     1.623000000     1.434000000    -4.048000000
H     1.705000000     2.493000000    -3.821000000
C     0.413000000     0.849000000    -4.506000000
O    -0.671000000     1.695000000    -4.592000000
C    -1.656000000     1.801000000    -3.571000000
C    -2.110000000     3.190000000    -3.112000000
C    -3.355000000     3.348000000    -2.472000000
H    -4.130000000     2.590000000    -2.554000000
C    -1.189000000     4.236000000    -3.092000000
H    -0.234000000     4.079000000    -3.587000000
O    -2.776000000     0.952000000    -4.056000000
H    -1.256000000     1.353000000    -2.650000000
C     0.316000000    -0.528000000    -4.787000000
C    -1.017000000    -1.053000000    -5.318000000
H    -0.788000000    -1.907000000    -5.958000000
H    -1.430000000    -0.267000000    -5.955000000
C    -1.996000000    -1.354000000    -4.224000000
C    -1.937000000    -2.699000000    -3.769000000
H    -1.286000000    -3.427000000    -4.247000000
C    -2.765000000    -0.378000000    -3.623000000
C    -3.485000000    -0.718000000    -2.447000000
H    -4.080000000     0.045000000    -1.953000000
C    -3.354000000    -1.996000000    -1.929000000
O    -4.039000000    -2.215000000    -0.760000000
C    -3.295000000    -2.295000000     0.395000000
C    -3.846000000    -1.465000000     1.575000000
C    -4.512000000    -0.321000000     1.275000000
H    -4.612000000     0.010000000     0.244000000
C    -3.711000000    -1.944000000     2.883000000
H    -3.221000000    -2.903000000     3.028000000
O    -3.223000000    -3.705000000     0.719000000
H    -2.246000000    -2.059000000     0.165000000
C    -2.694000000    -3.004000000    -2.632000000
C    -2.647000000    -4.446000000    -2.044000000
H    -2.334000000    -5.146000000    -2.821000000
H    -3.662000000    -4.706000000    -1.736000000
C    -1.655000000    -4.549000000    -0.866000000
C    -1.990000000    -4.270000000     0.448000000
C    -1.128000000    -4.332000000     1.485000000
H    -1.355000000    -3.988000000     2.491000000
C     0.230000000    -4.716000000     1.159000000
O     1.257000000    -4.595000000     2.080000000
C     1.777000000    -3.340000000     2.128000000
H     1.198000000    -2.721000000     1.427000000
C     1.758000000    -2.555000000     3.410000000
C     2.491000000    -1.424000000     3.544000000
H     3.092000000    -1.133000000     2.686000000
C     0.924000000    -2.959000000     4.418000000
H     0.323000000    -3.854000000     4.275000000
C     0.844000000    -2.301000000     5.621000000
O     0.035000000    -2.708000000     6.642000000
C     1.581000000    -1.110000000     5.773000000
H     1.509000000    -0.530000000     6.689000000
C     2.424000000    -0.696000000     4.745000000
O     3.050000000     0.617000000     4.828000000
C     4.321000000     0.997000000     4.451000000
C     4.551000000     1.965000000     3.440000000
H     3.693000000     2.524000000     3.074000000
C     5.450000000     0.315000000     4.927000000
H     5.344000000    -0.500000000     5.639000000
C     6.802000000     0.653000000     4.523000000
H     7.601000000     0.034000000     4.924000000
C     6.949000000     1.617000000     3.516000000
H     7.968000000     1.740000000     3.157000000
C     5.832000000     2.308000000     3.016000000
O     6.029000000     3.298000000     2.050000000
C     5.410000000     3.323000000     0.839000000
C     5.064000000     4.522000000     0.244000000
H     5.304000000     5.421000000     0.805000000
C     4.437000000     4.544000000    -1.009000000
O     4.013000000     5.781000000    -1.456000000
C     3.010000000     6.011000000    -2.366000000
C     1.713000000     6.179000000    -1.929000000
H     1.491000000     6.154000000    -0.865000000
C     3.360000000     6.055000000    -3.707000000
H     4.342000000     5.753000000    -4.060000000
C     2.402000000     6.254000000    -4.666000000
H     2.653000000     6.143000000    -5.718000000
C     1.134000000     6.543000000    -4.248000000
H     0.382000000     6.678000000    -5.021000000
C     0.702000000     6.433000000    -2.896000000
O    -0.597000000     6.461000000    -2.400000000
C    -1.476000000     5.442000000    -2.445000000
C    -2.670000000     5.565000000    -1.747000000
H    -2.829000000     6.526000000    -1.264000000
C    -3.594000000     4.480000000    -1.721000000
O    -4.747000000     4.609000000    -1.018000000
C    -5.680000000     3.627000000    -0.722000000
C    -5.487000000     2.775000000     0.336000000
H    -4.551000000     2.721000000     0.886000000
C    -6.901000000     3.735000000    -1.340000000
H    -7.130000000     4.419000000    -2.153000000
C    -7.906000000     2.796000000    -0.961000000
H    -8.878000000     2.844000000    -1.446000000
C    -7.764000000     1.920000000     0.106000000
H    -8.624000000     1.411000000     0.534000000
C    -6.535000000     1.941000000     0.774000000
O    -6.357000000     1.218000000     1.909000000
C    -5.319000000     0.339000000     2.271000000
C    -5.202000000    -0.201000000     3.592000000
H    -5.828000000     0.096000000     4.430000000
C    -4.445000000    -1.311000000     3.912000000
O    -4.491000000    -1.775000000     5.258000000
C    -3.490000000    -2.670000000     5.709000000
C    -3.932000000    -3.916000000     6.103000000
H    -4.998000000    -4.078000000     5.959000000
C    -2.981000000    -4.813000000     6.685000000
H    -3.150000000    -5.861000000     6.919000000
C    -1.654000000    -4.378000000     6.820000000
H    -0.906000000    -5.070000000     7.198000000
C    -1.260000000    -3.112000000     6.345000000
C    -2.175000000    -2.270000000     5.834000000
H    -1.891000000    -1.229000000     5.704000000
C     0.415000000     1.749000000     2.567000000
H     0.662000000     1.528000000     3.602000000
C     0.203000000     0.682000000     1.628000000
H     0.171000000    -0.367000000     1.910000000
C     0.102000000     0.915000000     0.278000000
H    -0.090000000     0.012000000    -0.339000000
C     0.041000000     2.217000000    -0.186000000
H    -0.234000000     2.484000000    -1.203000000
C     0.337000000     3.291000000     0.703000000
H     0.332000000     4.312000000     0.330000000
C     0.603000000     3.068000000     2.038000000
C     1.005000000     4.277000000     2.886000000
O     1.217000000     5.351000000     2.362000000
O     1.168000000     4.156000000     4.118000000
O    -2.865000000     4.745000000     1.676000000
H    -2.186000000     5.192000000     1.170000000
H    -3.688000000     5.066000000     1.307000000
O     2.329000000     8.245000000     0.570000000
H     1.692000000     8.854000000     0.945000000
H     2.735000000     8.734000000    -0.146000000
O     2.696000000     6.171000000     4.993000000
H     2.303000000     5.435000000     4.524000000
H     3.499000000     6.363000000     4.509000000
O    -0.499000000     6.914000000     0.990000000
H     0.043000000     6.294000000     1.476000000
H     0.124000000     7.413000000     0.461000000
O     3.880000000     6.860000000     7.208000000
H     3.450000000     7.697000000     7.388000000
H     3.425000000     6.518000000     6.439000000
O     0.701000000     7.692000000     3.910000000
H     1.384000000     7.380000000     4.503000000
H     0.808000000     7.161000000     3.121000000
O    -2.754000000     4.098000000     7.944000000
H    -1.953000000     3.840000000     7.489000000
H    -3.128000000     4.789000000     7.397000000
O     0.845000000     9.920000000     2.184000000
H     0.909000000     9.265000000     2.879000000
H     0.957000000    10.758000000     2.634000000
O     1.277000000     3.241000000     9.308000000
H     1.360000000     3.400000000     8.368000000
H     0.899000000     2.364000000     9.371000000
O    -2.314000000     9.462000000     1.166000000
H    -1.656000000     8.796000000     1.365000000
H    -1.967000000     9.920000000     0.401000000
O    -2.325000000     2.710000000     3.337000000
H    -1.948000000     2.087000000     2.716000000
H    -2.600000000     3.450000000     2.796000000
O     2.019000000     3.554000000     6.508000000
H     2.234000000     2.642000000     6.313000000
H     1.854000000     3.950000000     5.652000000
O    -0.896000000     3.554000000     5.520000000
H    -0.032000000     3.627000000     5.114000000
H    -1.500000000     3.464000000     4.784000000
O     0.149000000     5.738000000     6.914000000
H     1.030000000     5.371000000     6.837000000
H    -0.349000000     5.314000000     6.214000000
O     3.640000000     6.643000000     2.294000000
H     3.145000000     5.828000000     2.209000000
H     3.181000000     7.262000000     1.727000000
O     6.177000000     7.313000000     3.114000000
H     6.101000000     7.688000000     3.991000000
H     5.282000000     7.069000000     2.879000000
O    -4.242000000     2.856000000     5.520000000
H    -3.766000000     3.503000000     6.041000000
H    -3.766000000     2.821000000     4.689000000
O    -1.692000000     7.605000000     5.866000000
H    -0.914000000     7.637000000     5.310000000
H    -1.402000000     7.150000000     6.657000000
O    -3.910000000     5.702000000     6.124000000
H    -3.432000000     6.495000000     5.878000000
H    -4.354000000     5.431000000     5.320000000
