215
-1473.13142
C     2.995000000     3.977000000    -1.714000000
H     2.057000000     4.016000000    -2.261000000
C     3.739000000     2.846000000    -1.711000000
C     4.900000000     2.797000000    -0.876000000
H     5.632000000     1.998000000    -0.952000000
C     3.255000000     1.586000000    -2.465000000
O     2.693000000     1.851000000    -3.749000000
H     2.461000000     1.203000000    -1.807000000
O     4.279000000     0.577000000    -2.465000000
C     3.878000000    -0.689000000    -2.274000000
C     4.037000000    -1.157000000    -0.962000000
H     4.433000000    -0.433000000    -0.254000000
C     3.564000000    -2.428000000    -0.634000000
O     3.628000000    -2.835000000     0.650000000
C     3.000000000    -3.252000000    -1.563000000
C     2.506000000    -4.628000000    -1.237000000
H     2.335000000    -5.211000000    -2.145000000
C     1.204000000    -4.518000000    -0.564000000
C     0.085000000    -4.671000000    -1.364000000
H     0.304000000    -4.765000000    -2.424000000
H     3.262000000    -5.101000000    -0.607000000
C     2.862000000    -2.833000000    -2.868000000
H     2.397000000    -3.491000000    -3.596000000
C     3.275000000    -1.501000000    -3.236000000
C     3.017000000    -0.958000000    -4.599000000
H     3.089000000    -1.713000000    -5.385000000
H     3.752000000    -0.193000000    -4.856000000
C     1.673000000    -0.145000000    -4.562000000
C     0.462000000    -0.775000000    -4.889000000
H     0.438000000    -1.802000000    -5.245000000
C     1.634000000     1.146000000    -4.118000000
C     0.412000000     1.842000000    -4.059000000
H     0.484000000     2.921000000    -3.943000000
C    -0.781000000     1.139000000    -4.217000000
O    -1.950000000     1.820000000    -4.126000000
C    -2.717000000     1.596000000    -2.921000000
C    -3.256000000     2.859000000    -2.347000000
C    -4.447000000     2.816000000    -1.584000000
H    -4.875000000     1.831000000    -1.414000000
C    -2.460000000     3.951000000    -2.369000000
H    -1.481000000     3.872000000    -2.833000000
O    -3.827000000     0.686000000    -3.156000000
H    -2.069000000     1.080000000    -2.197000000
C    -0.738000000    -0.107000000    -4.695000000
C    -2.011000000    -0.861000000    -5.039000000
H    -1.831000000    -1.701000000    -5.715000000
H    -2.748000000    -0.187000000    -5.480000000
C    -2.711000000    -1.387000000    -3.804000000
C    -2.510000000    -2.676000000    -3.505000000
H    -1.817000000    -3.237000000    -4.128000000
C    -3.520000000    -0.670000000    -2.950000000
C    -4.122000000    -1.273000000    -1.884000000
H    -4.770000000    -0.759000000    -1.180000000
C    -3.802000000    -2.583000000    -1.545000000
O    -4.184000000    -3.063000000    -0.235000000
C    -3.250000000    -3.087000000     0.780000000
C    -3.651000000    -2.396000000     2.112000000
C    -4.405000000    -1.201000000     2.032000000
H    -4.644000000    -0.699000000     1.097000000
C    -3.348000000    -2.931000000     3.383000000
H    -2.791000000    -3.864000000     3.423000000
O    -2.784000000    -4.463000000     1.026000000
H    -2.375000000    -2.510000000     0.447000000
C    -2.954000000    -3.355000000    -2.339000000
C    -2.418000000    -4.684000000    -1.863000000
H    -2.102000000    -5.182000000    -2.782000000
H    -3.248000000    -5.261000000    -1.449000000
C    -1.232000000    -4.606000000    -0.842000000
C    -1.482000000    -4.641000000     0.552000000
C    -0.312000000    -4.591000000     1.383000000
H    -0.547000000    -4.569000000     2.444000000
C     0.992000000    -4.429000000     0.878000000
O     1.969000000    -4.018000000     1.680000000
C     2.491000000    -2.685000000     1.545000000
H     1.717000000    -2.074000000     1.057000000
C     2.887000000    -2.090000000     2.880000000
C     3.693000000    -0.957000000     2.895000000
H     4.295000000    -0.747000000     2.015000000
C     2.203000000    -2.499000000     4.020000000
H     1.682000000    -3.452000000     3.996000000
C     2.388000000    -1.809000000     5.257000000
O     1.711000000    -2.159000000     6.400000000
C     3.338000000    -0.767000000     5.285000000
H     3.563000000    -0.212000000     6.192000000
C     3.932000000    -0.318000000     4.099000000
O     4.778000000     0.702000000     4.212000000
C     5.770000000     0.998000000     3.269000000
C     5.535000000     2.120000000     2.469000000
H     4.596000000     2.643000000     2.634000000
C     6.878000000     0.167000000     3.036000000
H     7.183000000    -0.664000000     3.668000000
C     7.781000000     0.514000000     2.023000000
H     8.693000000    -0.057000000     1.870000000
C     7.618000000     1.711000000     1.322000000
H     8.359000000     2.088000000     0.622000000
C     6.498000000     2.537000000     1.596000000
O     6.317000000     3.721000000     0.889000000
C     5.293000000     3.870000000    -0.048000000
C     4.482000000     4.990000000    -0.041000000
H     4.655000000     5.809000000     0.652000000
C     3.343000000     5.021000000    -0.834000000
O     2.578000000     6.193000000    -0.717000000
C     1.523000000     6.256000000    -1.589000000
C     0.196000000     6.250000000    -1.140000000
H     0.066000000     6.110000000    -0.070000000
C     1.758000000     6.513000000    -2.962000000
H     2.801000000     6.537000000    -3.269000000
C     0.772000000     6.775000000    -3.846000000
H     0.938000000     6.982000000    -4.900000000
C    -0.524000000     6.645000000    -3.391000000
H    -1.335000000     6.808000000    -4.095000000
C    -0.794000000     6.402000000    -2.062000000
O    -2.091000000     6.290000000    -1.626000000
C    -2.853000000     5.129000000    -1.735000000
C    -4.112000000     5.153000000    -1.124000000
H    -4.373000000     6.049000000    -0.566000000
C    -4.880000000     4.001000000    -1.057000000
O    -5.995000000     3.915000000    -0.235000000
C    -6.404000000     2.836000000     0.435000000
C    -5.600000000     2.257000000     1.407000000
H    -4.643000000     2.689000000     1.686000000
C    -7.656000000     2.323000000     0.084000000
H    -8.352000000     2.844000000    -0.568000000
C    -8.045000000     1.062000000     0.651000000
H    -9.030000000     0.668000000     0.415000000
C    -7.256000000     0.467000000     1.666000000
H    -7.594000000    -0.451000000     2.141000000
C    -6.093000000     1.113000000     2.068000000
O    -5.332000000     0.685000000     3.141000000
C    -4.700000000    -0.516000000     3.200000000
C    -4.138000000    -0.916000000     4.378000000
H    -4.212000000    -0.263000000     5.244000000
C    -3.546000000    -2.125000000     4.522000000
O    -3.110000000    -2.447000000     5.776000000
C    -1.852000000    -3.025000000     5.921000000
C    -1.799000000    -4.377000000     6.182000000
H    -2.752000000    -4.893000000     6.096000000
C    -0.591000000    -5.021000000     6.435000000
H    -0.520000000    -6.096000000     6.582000000
C     0.606000000    -4.336000000     6.531000000
H     1.554000000    -4.758000000     6.856000000
C     0.568000000    -2.951000000     6.381000000
C    -0.673000000    -2.268000000     6.051000000
H    -0.696000000    -1.187000000     6.162000000
C    -0.864000000     0.086000000     2.499000000
H    -1.205000000    -0.278000000     3.465000000
C    -0.506000000    -0.901000000     1.606000000
H    -0.409000000    -1.933000000     1.933000000
C    -0.067000000    -0.533000000     0.333000000
H     0.178000000    -1.345000000    -0.291000000
C    -0.091000000     0.745000000    -0.056000000
H     0.309000000     1.040000000    -1.023000000
C    -0.554000000     1.775000000     0.823000000
H    -0.690000000     2.786000000     0.447000000
C    -0.925000000     1.409000000     2.114000000
C    -1.365000000     2.554000000     3.042000000
O    -1.867000000     3.548000000     2.572000000
O    -1.342000000     2.321000000     4.290000000
O    -3.695000000     5.401000000     1.960000000
H    -3.149000000     6.079000000     1.563000000
H    -3.116000000     4.644000000     2.042000000
O    -2.288000000     3.757000000     7.971000000
H    -1.890000000     3.266000000     8.689000000
H    -3.199000000     3.464000000     7.957000000
O     4.078000000     3.077000000     6.305000000
H     4.917000000     2.747000000     5.982000000
H     3.715000000     3.570000000     5.569000000
O    -2.935000000     6.770000000     7.848000000
H    -2.268000000     6.160000000     7.533000000
H    -3.628000000     6.728000000     7.189000000
O    -6.318000000     3.394000000     4.577000000
H    -5.372000000     3.377000000     4.722000000
H    -6.456000000     4.126000000     3.976000000
O    -6.040000000     5.821000000     3.264000000
H    -6.374000000     6.439000000     2.613000000
H    -5.243000000     5.466000000     2.871000000
O     1.890000000     1.656000000     7.211000000
H     2.671000000     2.195000000     7.089000000
H     1.543000000     1.534000000     6.327000000
O    -2.804000000     6.789000000     5.090000000
H    -2.239000000     6.744000000     4.319000000
H    -3.231000000     7.643000000     5.025000000
O    -0.621000000     5.938000000     3.293000000
H    -0.218000000     5.597000000     4.092000000
H    -1.071000000     5.184000000     2.912000000
O     0.948000000     0.897000000     4.776000000
H     0.093000000     1.268000000     4.556000000
H     1.193000000     0.385000000     4.005000000
O    -2.499000000     7.538000000     1.070000000
H    -3.092000000     8.280000000     1.192000000
H    -2.007000000     7.753000000     0.277000000
O    -2.359000000     1.238000000     6.360000000
H    -2.888000000     1.985000000     6.638000000
H    -1.933000000     1.532000000     5.555000000
O    -3.759000000     3.716000000     5.028000000
H    -3.496000000     4.634000000     5.086000000
H    -2.944000000     3.243000000     4.859000000
O    -2.471000000    -0.393000000     8.523000000
H    -2.296000000     0.254000000     7.840000000
H    -1.611000000    -0.755000000     8.736000000
O    -0.550000000     4.370000000     5.844000000
H    -1.022000000     4.323000000     6.675000000
H    -0.960000000     3.700000000     5.297000000
O    -7.418000000     1.106000000     5.301000000
H    -6.686000000     1.392000000     4.755000000
H    -8.193000000     1.255000000     4.759000000
O     2.081000000     5.415000000     5.789000000
H     1.937000000     6.333000000     6.018000000
H     1.240000000     4.991000000     5.957000000
O     3.839000000     5.554000000     3.890000000
H     3.557000000     6.333000000     3.411000000
H     3.171000000     5.433000000     4.565000000
O    -0.276000000     8.583000000     2.462000000
H    -1.211000000     8.784000000     2.422000000
H    -0.238000000     7.632000000     2.558000000
