215
-1456.50603
C     3.388000000     3.469000000    -0.894000000
H     2.689000000     3.703000000    -1.693000000
C     3.893000000     2.184000000    -0.692000000
C     4.655000000     1.856000000     0.460000000
H     4.932000000     0.829000000     0.684000000
C     3.601000000     1.091000000    -1.706000000
O     3.361000000     1.552000000    -3.094000000
H     2.631000000     0.638000000    -1.454000000
O     4.548000000    -0.033000000    -1.601000000
C     4.099000000    -1.292000000    -1.632000000
C     4.080000000    -2.029000000    -0.421000000
H     4.479000000    -1.608000000     0.498000000
C     3.440000000    -3.231000000    -0.375000000
O     3.318000000    -3.803000000     0.870000000
C     2.840000000    -3.793000000    -1.462000000
C     1.994000000    -5.123000000    -1.374000000
H     2.015000000    -5.774000000    -2.250000000
C     0.582000000    -4.870000000    -1.003000000
C    -0.434000000    -4.857000000    -1.963000000
H    -0.222000000    -4.957000000    -3.024000000
H     2.432000000    -5.753000000    -0.597000000
C     2.840000000    -3.126000000    -2.718000000
H     2.187000000    -3.399000000    -3.543000000
C     3.437000000    -1.806000000    -2.777000000
C     3.440000000    -1.136000000    -4.126000000
H     3.389000000    -1.940000000    -4.864000000
H     4.349000000    -0.552000000    -4.287000000
C     2.220000000    -0.246000000    -4.332000000
C     1.030000000    -0.638000000    -4.893000000
H     0.979000000    -1.613000000    -5.371000000
C     2.255000000     1.033000000    -3.780000000
C     1.185000000     1.921000000    -3.874000000
H     1.312000000     2.969000000    -3.616000000
C    -0.030000000     1.487000000    -4.411000000
O    -1.110000000     2.336000000    -4.434000000
C    -2.004000000     2.098000000    -3.362000000
C    -2.420000000     3.415000000    -2.640000000
C    -3.594000000     3.480000000    -1.842000000
H    -4.269000000     2.631000000    -1.776000000
C    -1.545000000     4.483000000    -2.680000000
H    -0.697000000     4.403000000    -3.356000000
O    -3.118000000     1.389000000    -3.880000000
H    -1.559000000     1.453000000    -2.591000000
C    -0.102000000     0.192000000    -4.881000000
C    -1.370000000    -0.297000000    -5.464000000
H    -1.157000000    -1.148000000    -6.115000000
H    -1.894000000     0.493000000    -6.006000000
C    -2.230000000    -0.814000000    -4.341000000
C    -2.159000000    -2.212000000    -4.050000000
H    -1.336000000    -2.800000000    -4.448000000
C    -3.069000000     0.019000000    -3.648000000
C    -3.791000000    -0.500000000    -2.594000000
H    -4.370000000     0.246000000    -2.056000000
C    -3.800000000    -1.857000000    -2.281000000
O    -4.456000000    -2.162000000    -1.140000000
C    -3.601000000    -2.328000000     0.018000000
C    -4.028000000    -1.584000000     1.338000000
C    -5.008000000    -0.585000000     1.279000000
H    -5.525000000    -0.430000000     0.335000000
C    -3.388000000    -1.923000000     2.502000000
H    -2.635000000    -2.707000000     2.518000000
O    -3.229000000    -3.753000000     0.208000000
H    -2.644000000    -1.833000000    -0.203000000
C    -2.936000000    -2.748000000    -2.974000000
C    -2.836000000    -4.206000000    -2.579000000
H    -2.481000000    -4.753000000    -3.455000000
H    -3.778000000    -4.660000000    -2.264000000
C    -1.758000000    -4.555000000    -1.596000000
C    -1.984000000    -4.277000000    -0.222000000
C    -1.047000000    -4.381000000     0.704000000
H    -1.321000000    -4.139000000     1.728000000
C     0.260000000    -4.731000000     0.323000000
O     1.167000000    -4.689000000     1.339000000
C     2.061000000    -3.542000000     1.465000000
H     1.569000000    -2.717000000     0.928000000
C     2.220000000    -3.143000000     2.940000000
C     3.286000000    -2.295000000     3.302000000
H     3.758000000    -1.831000000     2.439000000
C     1.403000000    -3.653000000     3.988000000
H     0.674000000    -4.434000000     3.783000000
C     1.632000000    -3.365000000     5.327000000
O     0.745000000    -3.783000000     6.298000000
C     2.657000000    -2.453000000     5.639000000
H     2.817000000    -2.326000000     6.706000000
C     3.520000000    -1.974000000     4.645000000
O     4.653000000    -1.294000000     5.069000000
C     5.541000000    -0.574000000     4.302000000
C     5.094000000     0.552000000     3.597000000
H     4.071000000     0.893000000     3.732000000
C     6.902000000    -0.888000000     4.336000000
H     7.275000000    -1.731000000     4.911000000
C     7.838000000    -0.078000000     3.718000000
H     8.887000000    -0.362000000     3.687000000
C     7.411000000     1.045000000     3.029000000
H     8.085000000     1.758000000     2.562000000
C     6.073000000     1.388000000     3.031000000
O     5.679000000     2.629000000     2.496000000
C     4.979000000     2.903000000     1.394000000
C     4.541000000     4.199000000     1.091000000
H     4.823000000     5.033000000     1.729000000
C     3.760000000     4.474000000     0.021000000
O     3.185000000     5.744000000    -0.039000000
C     2.508000000     6.253000000    -1.181000000
C     1.121000000     6.234000000    -1.220000000
H     0.638000000     5.734000000    -0.384000000
C     3.177000000     6.865000000    -2.223000000
H     4.264000000     6.857000000    -2.262000000
C     2.406000000     7.427000000    -3.362000000
H     2.895000000     7.900000000    -4.209000000
C     0.969000000     7.404000000    -3.316000000
H     0.331000000     7.793000000    -4.105000000
C     0.360000000     6.740000000    -2.253000000
O    -0.954000000     6.770000000    -2.156000000
C    -1.813000000     5.713000000    -2.034000000
C    -2.935000000     5.721000000    -1.157000000
H    -3.099000000     6.599000000    -0.537000000
C    -3.850000000     4.673000000    -1.191000000
O    -4.910000000     4.789000000    -0.291000000
C    -5.865000000     3.817000000     0.140000000
C    -5.619000000     2.950000000     1.179000000
H    -4.725000000     3.063000000     1.786000000
C    -7.162000000     3.875000000    -0.427000000
H    -7.469000000     4.545000000    -1.226000000
C    -8.178000000     2.902000000    -0.129000000
H    -9.159000000     2.933000000    -0.596000000
C    -7.832000000     1.966000000     0.864000000
H    -8.599000000     1.325000000     1.290000000
C    -6.583000000     2.023000000     1.511000000
O    -6.289000000     1.155000000     2.512000000
C    -5.305000000     0.195000000     2.436000000
C    -4.685000000    -0.181000000     3.642000000
H    -5.005000000     0.280000000     4.573000000
C    -3.740000000    -1.194000000     3.662000000
O    -3.092000000    -1.452000000     4.874000000
C    -2.497000000    -2.599000000     5.234000000
C    -3.326000000    -3.669000000     5.696000000
H    -4.405000000    -3.636000000     5.564000000
C    -2.764000000    -4.838000000     6.284000000
H    -3.422000000    -5.630000000     6.633000000
C    -1.373000000    -4.895000000     6.512000000
H    -0.932000000    -5.828000000     6.853000000
C    -0.618000000    -3.835000000     6.102000000
C    -1.200000000    -2.764000000     5.477000000
H    -0.566000000    -1.911000000     5.252000000
C    -0.288000000    -0.382000000     1.235000000
H    -0.618000000    -1.087000000     1.994000000
C    -0.282000000    -0.725000000    -0.114000000
H    -0.474000000    -1.730000000    -0.481000000
C     0.016000000     0.264000000    -1.026000000
H     0.050000000    -0.006000000    -2.187000000
C     0.400000000     1.537000000    -0.628000000
H     0.610000000     2.332000000    -1.339000000
C     0.387000000     1.789000000     0.738000000
H     0.656000000     2.790000000     1.065000000
C    -0.008000000     0.873000000     1.675000000
C    -0.088000000     1.217000000     3.124000000
O    -0.211000000     2.427000000     3.348000000
O     0.137000000     0.397000000     4.000000000
O    -2.597000000     3.952000000     3.912000000
H    -2.228000000     4.134000000     4.776000000
H    -1.925000000     3.434000000     3.469000000
O     2.884000000     6.742000000     2.566000000
H     2.544000000     5.873000000     2.779000000
H     2.796000000     6.808000000     1.616000000
O     3.864000000     4.309000000     4.740000000
H     3.286000000     4.421000000     5.495000000
H     3.301000000     4.463000000     3.982000000
O     1.521000000     4.597000000     3.221000000
H     0.802000000     5.228000000     3.170000000
H     1.125000000     3.762000000     2.973000000
O     6.151000000     2.621000000     6.796000000
H     5.789000000     2.677000000     5.912000000
H     5.550000000     2.044000000     7.265000000
O     1.841000000     5.051000000     6.811000000
H     2.134000000     4.668000000     7.638000000
H     1.387000000     4.337000000     6.364000000
O    -1.720000000     0.734000000     8.511000000
H    -1.920000000     0.635000000     7.580000000
H    -2.575000000     0.802000000     8.934000000
O     0.900000000     1.179000000     9.571000000
H     0.513000000     0.642000000    10.263000000
H     0.252000000     1.166000000     8.867000000
O    -0.937000000     6.034000000     2.936000000
H    -1.138000000     6.810000000     2.413000000
H    -1.729000000     5.499000000     2.884000000
O    -5.132000000     3.418000000     5.881000000
H    -5.069000000     4.225000000     6.392000000
H    -4.290000000     3.353000000     5.430000000
O     2.187000000     0.506000000     5.545000000
H     1.428000000     0.421000000     4.968000000
H     2.527000000    -0.385000000     5.626000000
O    -4.891000000    -1.108000000     7.096000000
H    -4.158000000    -1.370000000     6.540000000
H    -5.666000000    -1.242000000     6.549000000
O    -2.152000000     0.917000000     5.721000000
H    -1.432000000     0.682000000     5.136000000
H    -2.786000000     0.207000000     5.617000000
O     0.578000000     3.106000000     5.707000000
H     1.100000000     2.315000000     5.839000000
H     0.320000000     3.072000000     4.786000000
O     3.863000000     1.094000000     7.477000000
H     3.267000000     0.793000000     6.791000000
H     3.384000000     1.792000000     7.922000000
O     2.546000000     3.418000000     9.045000000
H     2.972000000     3.668000000     9.865000000
H     1.776000000     2.919000000     9.318000000
O    -7.347000000     1.382000000     5.280000000
H    -6.740000000     1.757000000     4.641000000
H    -8.022000000     0.959000000     4.749000000
O    -1.052000000     7.275000000     5.820000000
H    -0.852000000     6.614000000     5.157000000
H    -1.588000000     7.921000000     5.360000000
O    -2.081000000     3.938000000     6.685000000
H    -1.125000000     3.958000000     6.741000000
H    -2.333000000     3.144000000     7.155000000
