215
-1466.13630
C     2.685000000     4.052000000    -2.225000000
H     1.637000000     4.092000000    -2.511000000
C     3.360000000     2.847000000    -2.438000000
C     4.687000000     2.723000000    -1.996000000
H     5.257000000     1.811000000    -2.150000000
C     2.683000000     1.702000000    -3.230000000
O     1.857000000     2.120000000    -4.388000000
H     2.044000000     1.103000000    -2.566000000
O     3.701000000     0.813000000    -3.707000000
C     3.333000000    -0.497000000    -3.522000000
C     3.802000000    -1.044000000    -2.350000000
H     4.606000000    -0.512000000    -1.846000000
C     3.491000000    -2.292000000    -1.886000000
O     3.850000000    -2.599000000    -0.580000000
C     2.623000000    -3.028000000    -2.670000000
C     2.303000000    -4.423000000    -2.272000000
H     2.169000000    -5.075000000    -3.138000000
C     1.154000000    -4.555000000    -1.321000000
C    -0.141000000    -4.702000000    -1.825000000
H    -0.293000000    -4.644000000    -2.899000000
H     3.231000000    -4.811000000    -1.846000000
C     2.091000000    -2.478000000    -3.874000000
H     1.543000000    -3.134000000    -4.546000000
C     2.494000000    -1.211000000    -4.313000000
C     1.777000000    -0.467000000    -5.446000000
H     1.522000000    -1.048000000    -6.335000000
H     2.525000000     0.266000000    -5.756000000
C     0.491000000     0.251000000    -5.005000000
C    -0.747000000    -0.395000000    -5.082000000
H    -0.782000000    -1.411000000    -5.467000000
C     0.584000000     1.592000000    -4.577000000
C    -0.460000000     2.159000000    -4.009000000
H    -0.299000000     3.075000000    -3.446000000
C    -1.717000000     1.537000000    -4.009000000
O    -2.828000000     2.069000000    -3.294000000
C    -3.105000000     1.584000000    -2.002000000
C    -3.357000000     2.796000000    -1.049000000
C    -3.882000000     2.535000000     0.200000000
H    -4.236000000     1.549000000     0.493000000
C    -2.822000000     4.034000000    -1.310000000
H    -2.333000000     4.296000000    -2.245000000
O    -4.215000000     0.782000000    -2.038000000
H    -2.320000000     0.986000000    -1.515000000
C    -1.924000000     0.252000000    -4.534000000
C    -3.253000000    -0.527000000    -4.485000000
H    -3.186000000    -1.183000000    -5.355000000
H    -4.056000000     0.174000000    -4.720000000
C    -3.418000000    -1.255000000    -3.159000000
C    -3.070000000    -2.653000000    -3.087000000
H    -2.630000000    -3.280000000    -3.859000000
C    -3.984000000    -0.575000000    -2.054000000
C    -4.260000000    -1.302000000    -0.878000000
H    -4.593000000    -0.843000000     0.049000000
C    -3.839000000    -2.678000000    -0.736000000
O    -4.027000000    -3.255000000     0.481000000
C    -2.864000000    -3.142000000     1.338000000
C    -3.270000000    -2.837000000     2.805000000
C    -4.383000000    -2.009000000     3.069000000
H    -4.834000000    -1.502000000     2.219000000
C    -2.446000000    -3.299000000     3.830000000
H    -1.605000000    -3.960000000     3.632000000
O    -2.244000000    -4.449000000     1.267000000
H    -2.126000000    -2.421000000     0.955000000
C    -3.259000000    -3.343000000    -1.830000000
C    -2.646000000    -4.742000000    -1.689000000
H    -2.651000000    -5.303000000    -2.627000000
H    -3.301000000    -5.399000000    -1.113000000
C    -1.284000000    -4.756000000    -0.980000000
C    -1.144000000    -4.656000000     0.413000000
C     0.121000000    -4.496000000     0.879000000
H     0.258000000    -4.355000000     1.948000000
C     1.240000000    -4.395000000     0.062000000
O     2.436000000    -4.054000000     0.655000000
C     2.876000000    -2.712000000     0.479000000
H     1.966000000    -2.222000000     0.103000000
C     3.266000000    -2.081000000     1.747000000
C     3.949000000    -0.832000000     1.698000000
H     4.088000000    -0.269000000     0.779000000
C     2.783000000    -2.583000000     2.971000000
H     2.243000000    -3.526000000     2.942000000
C     3.168000000    -1.956000000     4.136000000
O     2.806000000    -2.403000000     5.347000000
C     3.813000000    -0.729000000     4.150000000
H     4.045000000    -0.204000000     5.074000000
C     4.201000000    -0.190000000     2.898000000
O     4.750000000     1.017000000     2.948000000
C     5.862000000     1.387000000     2.188000000
C     5.651000000     2.236000000     1.081000000
H     4.644000000     2.518000000     0.783000000
C     7.187000000     0.932000000     2.482000000
H     7.326000000     0.341000000     3.384000000
C     8.259000000     1.237000000     1.600000000
H     9.288000000     0.968000000     1.825000000
C     7.980000000     2.087000000     0.518000000
H     8.823000000     2.391000000    -0.096000000
C     6.723000000     2.640000000     0.342000000
O     6.550000000     3.532000000    -0.681000000
C     5.322000000     3.774000000    -1.311000000
C     4.597000000     4.987000000    -1.052000000
H     5.019000000     5.809000000    -0.479000000
C     3.262000000     5.075000000    -1.467000000
O     2.464000000     6.246000000    -1.155000000
C     1.164000000     6.481000000    -1.694000000
C    -0.016000000     6.228000000    -0.928000000
H     0.064000000     5.954000000     0.121000000
C     1.054000000     6.947000000    -2.997000000
H     1.974000000     7.208000000    -3.513000000
C    -0.216000000     7.119000000    -3.576000000
H    -0.335000000     7.474000000    -4.597000000
C    -1.369000000     6.923000000    -2.772000000
H    -2.363000000     7.070000000    -3.187000000
C    -1.235000000     6.439000000    -1.460000000
O    -2.310000000     6.334000000    -0.659000000
C    -2.894000000     5.097000000    -0.405000000
C    -3.572000000     4.886000000     0.806000000
H    -3.692000000     5.800000000     1.382000000
C    -4.096000000     3.596000000     1.100000000
O    -4.401000000     3.346000000     2.432000000
C    -5.347000000     2.382000000     2.759000000
C    -4.960000000     1.218000000     3.428000000
H    -3.916000000     1.031000000     3.666000000
C    -6.700000000     2.627000000     2.441000000
H    -7.012000000     3.491000000     1.859000000
C    -7.708000000     1.612000000     2.714000000
H    -8.744000000     1.800000000     2.443000000
C    -7.286000000     0.477000000     3.479000000
H    -8.102000000    -0.166000000     3.799000000
C    -5.955000000     0.289000000     3.823000000
O    -5.681000000    -0.772000000     4.625000000
C    -4.663000000    -1.655000000     4.333000000
C    -3.882000000    -2.112000000     5.367000000
H    -4.127000000    -1.924000000     6.409000000
C    -2.725000000    -2.801000000     5.132000000
O    -1.918000000    -3.046000000     6.245000000
C    -0.664000000    -3.497000000     6.045000000
C    -0.457000000    -4.908000000     5.986000000
H    -1.268000000    -5.549000000     6.322000000
C     0.798000000    -5.454000000     5.788000000
H     0.937000000    -6.531000000     5.762000000
C     1.792000000    -4.609000000     5.446000000
H     2.790000000    -5.025000000     5.331000000
C     1.648000000    -3.224000000     5.516000000
C     0.389000000    -2.656000000     5.771000000
H     0.351000000    -1.575000000     5.658000000
C    -0.832000000     0.526000000     2.370000000
H    -1.166000000    -0.004000000     3.258000000
C    -0.348000000    -0.202000000     1.271000000
H    -0.182000000    -1.275000000     1.328000000
C    -0.108000000     0.470000000     0.070000000
H     0.335000000    -0.082000000    -0.728000000
C    -0.247000000     1.863000000    -0.031000000
H    -0.009000000     2.310000000    -0.993000000
C    -0.767000000     2.600000000     1.072000000
H    -0.847000000     3.681000000     0.992000000
C    -0.976000000     1.903000000     2.303000000
C    -1.333000000     2.642000000     3.615000000
O    -1.514000000     3.865000000     3.514000000
O    -1.348000000     2.015000000     4.648000000
O    -3.863000000     5.916000000     3.904000000
H    -4.561000000     6.293000000     3.368000000
H    -3.606000000     5.121000000     3.438000000
O     2.737000000     5.810000000     7.205000000
H     2.022000000     5.691000000     6.579000000
H     2.455000000     5.329000000     7.984000000
O    -5.614000000     2.885000000     7.077000000
H    -4.748000000     3.230000000     6.858000000
H    -6.133000000     3.021000000     6.285000000
O     0.763000000     2.691000000     6.528000000
H     0.038000000     2.626000000     5.906000000
H     1.548000000     2.700000000     5.982000000
O    -7.405000000     4.132000000     4.967000000
H    -7.153000000     4.456000000     4.103000000
H    -8.054000000     4.763000000     5.280000000
O     2.978000000     2.717000000     4.905000000
H     2.913000000     3.630000000     4.626000000
H     2.755000000     2.211000000     4.123000000
O    -2.085000000     7.987000000     4.784000000
H    -1.589000000     8.448000000     4.107000000
H    -2.487000000     7.250000000     4.325000000
O    -0.619000000     6.185000000     2.593000000
H    -1.014000000     5.362000000     2.881000000
H     0.283000000     6.141000000     2.912000000
O     2.092000000     2.670000000     1.848000000
H     1.218000000     2.444000000     1.530000000
H     1.977000000     3.513000000     2.286000000
O    -4.407000000     5.854000000     7.692000000
H    -4.025000000     5.267000000     7.039000000
H    -5.350000000     5.809000000     7.532000000
O    -1.319000000     0.489000000     6.773000000
H    -2.251000000     0.404000000     6.978000000
H    -1.300000000     0.844000000     5.885000000
O    -3.957000000     0.197000000     7.464000000
H    -4.486000000     0.931000000     7.149000000
H    -4.595000000    -0.488000000     7.665000000
O    -3.187000000     3.523000000     5.909000000
H    -3.266000000     4.161000000     5.200000000
H    -2.551000000     2.884000000     5.587000000
O    -1.095000000    -1.367000000     8.761000000
H    -1.271000000    -0.777000000     8.029000000
H    -0.194000000    -1.659000000     8.623000000
O     0.263000000     5.842000000     5.509000000
H    -0.400000000     6.469000000     5.798000000
H    -0.223000000     5.201000000     4.990000000
O     0.582000000     4.293000000     8.840000000
H     0.074000000     5.103000000     8.798000000
H     0.508000000     3.918000000     7.962000000
O     2.059000000     5.088000000     3.477000000
H     2.563000000     5.860000000     3.220000000
H     1.367000000     5.430000000     4.043000000
O     0.123000000     1.255000000     8.902000000
H     0.595000000     2.013000000     8.557000000
H    -0.520000000     1.044000000     8.224000000
O    -2.079000000     8.443000000     1.783000000
H    -2.927000000     8.071000000     1.542000000
H    -1.498000000     7.686000000     1.861000000
