215
-1463.57588
C     3.253000000     4.069000000    -1.759000000
H     2.686000000     4.360000000    -2.640000000
C     3.778000000     2.784000000    -1.506000000
C     4.500000000     2.538000000    -0.292000000
H     4.646000000     1.510000000     0.029000000
C     3.301000000     1.674000000    -2.371000000
O     2.875000000     2.131000000    -3.660000000
H     2.425000000     1.148000000    -1.963000000
O     4.280000000     0.689000000    -2.520000000
C     3.875000000    -0.706000000    -2.433000000
C     4.156000000    -1.408000000    -1.259000000
H     4.719000000    -0.909000000    -0.474000000
C     3.674000000    -2.664000000    -1.040000000
O     3.880000000    -3.197000000     0.199000000
C     2.851000000    -3.284000000    -2.067000000
C     2.280000000    -4.660000000    -1.861000000
H     2.189000000    -5.143000000    -2.836000000
C     1.000000000    -4.665000000    -1.142000000
C    -0.210000000    -4.673000000    -1.853000000
H    -0.225000000    -4.782000000    -2.935000000
H     2.949000000    -5.319000000    -1.304000000
C     2.738000000    -2.605000000    -3.305000000
H     2.164000000    -3.119000000    -4.072000000
C     3.233000000    -1.326000000    -3.510000000
C     2.944000000    -0.566000000    -4.765000000
H     2.882000000    -1.244000000    -5.619000000
H     3.759000000     0.144000000    -4.920000000
C     1.601000000     0.226000000    -4.640000000
C     0.398000000    -0.327000000    -5.044000000
H     0.436000000    -1.337000000    -5.444000000
C     1.674000000     1.533000000    -4.153000000
C     0.541000000     2.238000000    -4.030000000
H     0.696000000     3.248000000    -3.659000000
C    -0.714000000     1.659000000    -4.238000000
O    -1.802000000     2.390000000    -3.940000000
C    -2.641000000     1.994000000    -2.822000000
C    -2.961000000     3.184000000    -1.898000000
C    -4.019000000     3.062000000    -0.942000000
H    -4.627000000     2.162000000    -0.897000000
C    -2.384000000     4.468000000    -2.092000000
H    -1.823000000     4.647000000    -3.005000000
O    -3.773000000     1.155000000    -3.260000000
H    -2.057000000     1.327000000    -2.171000000
C    -0.795000000     0.390000000    -4.860000000
C    -2.133000000    -0.319000000    -5.162000000
H    -1.892000000    -1.191000000    -5.773000000
H    -2.807000000     0.279000000    -5.779000000
C    -2.757000000    -0.930000000    -3.957000000
C    -2.527000000    -2.305000000    -3.659000000
H    -2.051000000    -2.965000000    -4.380000000
C    -3.587000000    -0.144000000    -3.096000000
C    -4.065000000    -0.732000000    -1.920000000
H    -4.745000000    -0.321000000    -1.179000000
C    -3.687000000    -2.006000000    -1.571000000
O    -4.044000000    -2.386000000    -0.266000000
C    -3.006000000    -2.532000000     0.790000000
C    -3.582000000    -2.170000000     2.137000000
C    -4.657000000    -1.265000000     2.216000000
H    -5.047000000    -0.798000000     1.315000000
C    -2.946000000    -2.514000000     3.313000000
H    -2.086000000    -3.179000000     3.293000000
O    -2.585000000    -3.905000000     0.901000000
H    -2.138000000    -1.915000000     0.513000000
C    -3.011000000    -2.851000000    -2.444000000
C    -2.716000000    -4.304000000    -2.091000000
H    -2.539000000    -4.816000000    -3.038000000
H    -3.480000000    -4.835000000    -1.519000000
C    -1.424000000    -4.438000000    -1.204000000
C    -1.453000000    -4.312000000     0.196000000
C    -0.246000000    -4.415000000     0.857000000
H    -0.235000000    -4.264000000     1.934000000
C     0.920000000    -4.638000000     0.241000000
O     2.104000000    -4.570000000     0.902000000
C     2.670000000    -3.272000000     1.030000000
H     1.934000000    -2.587000000     0.584000000
C     2.985000000    -2.885000000     2.478000000
C     3.969000000    -1.931000000     2.751000000
H     4.508000000    -1.497000000     1.912000000
C     2.275000000    -3.413000000     3.565000000
H     1.465000000    -4.114000000     3.382000000
C     2.444000000    -2.862000000     4.837000000
O     1.854000000    -3.449000000     5.915000000
C     3.335000000    -1.909000000     5.156000000
H     3.366000000    -1.527000000     6.173000000
C     4.128000000    -1.482000000     4.100000000
O     5.028000000    -0.556000000     4.426000000
C     5.730000000     0.188000000     3.538000000
C     5.276000000     1.434000000     3.111000000
H     4.402000000     1.917000000     3.540000000
C     6.951000000    -0.366000000     3.029000000
H     7.293000000    -1.380000000     3.219000000
C     7.606000000     0.277000000     1.994000000
H     8.511000000    -0.106000000     1.530000000
C     7.174000000     1.543000000     1.525000000
H     7.857000000     2.053000000     0.849000000
C     6.027000000     2.119000000     2.111000000
O     5.616000000     3.343000000     1.681000000
C     4.852000000     3.575000000     0.541000000
C     4.309000000     4.838000000     0.335000000
H     4.558000000     5.617000000     1.051000000
C     3.444000000     5.052000000    -0.748000000
O     2.888000000     6.288000000    -0.812000000
C     1.772000000     6.573000000    -1.548000000
C     0.541000000     6.541000000    -0.917000000
H     0.372000000     6.146000000     0.081000000
C     1.923000000     7.093000000    -2.858000000
H     2.876000000     7.103000000    -3.380000000
C     0.793000000     7.331000000    -3.580000000
H     0.936000000     7.573000000    -4.630000000
C    -0.486000000     7.139000000    -3.047000000
H    -1.351000000     7.149000000    -3.705000000
C    -0.613000000     6.804000000    -1.722000000
O    -1.917000000     6.714000000    -1.196000000
C    -2.585000000     5.475000000    -1.112000000
C    -3.366000000     5.184000000    -0.030000000
H    -3.498000000     5.983000000     0.694000000
C    -4.144000000     3.997000000     0.053000000
O    -5.105000000     4.012000000     0.983000000
C    -5.891000000     2.964000000     1.299000000
C    -5.576000000     2.069000000     2.301000000
H    -4.719000000     2.169000000     2.962000000
C    -7.123000000     2.874000000     0.695000000
H    -7.384000000     3.672000000     0.003000000
C    -7.996000000     1.774000000     0.945000000
H    -9.010000000     1.806000000     0.554000000
C    -7.613000000     0.863000000     1.884000000
H    -8.294000000     0.065000000     2.169000000
C    -6.439000000     1.042000000     2.651000000
O    -6.120000000     0.167000000     3.673000000
C    -5.094000000    -0.752000000     3.453000000
C    -4.399000000    -1.137000000     4.598000000
H    -4.711000000    -0.780000000     5.577000000
C    -3.377000000    -2.069000000     4.570000000
O    -2.579000000    -2.434000000     5.690000000
C    -1.705000000    -3.496000000     5.672000000
C    -2.134000000    -4.815000000     5.664000000
H    -3.173000000    -5.125000000     5.593000000
C    -1.099000000    -5.740000000     5.777000000
H    -1.222000000    -6.815000000     5.881000000
C     0.250000000    -5.247000000     5.850000000
H     1.013000000    -6.004000000     6.011000000
C     0.571000000    -3.876000000     5.811000000
C    -0.432000000    -3.043000000     5.615000000
H    -0.282000000    -1.967000000     5.577000000
C    -1.066000000     0.497000000     3.073000000
H    -1.344000000     0.058000000     4.027000000
C    -0.507000000    -0.372000000     2.113000000
H    -0.247000000    -1.416000000     2.267000000
C    -0.190000000     0.075000000     0.841000000
H     0.437000000    -0.528000000     0.146000000
C    -0.520000000     1.405000000     0.518000000
H    -0.328000000     1.792000000    -0.479000000
C    -0.966000000     2.321000000     1.442000000
H    -1.132000000     3.374000000     1.230000000
C    -1.340000000     1.889000000     2.734000000
C    -1.957000000     2.841000000     3.735000000
O    -2.149000000     4.008000000     3.413000000
O    -2.263000000     2.331000000     4.844000000
O    -4.189000000     5.937000000     3.251000000
H    -4.569000000     5.521000000     2.477000000
H    -3.329000000     5.526000000     3.345000000
O     0.771000000     3.369000000     8.627000000
H    -0.015000000     3.472000000     9.163000000
H     0.439000000     3.190000000     7.747000000
O    -6.570000000     4.301000000     6.630000000
H    -5.680000000     4.151000000     6.311000000
H    -6.603000000     5.240000000     6.815000000
O     1.799000000     0.367000000     6.982000000
H     2.609000000     0.532000000     7.465000000
H     1.716000000     1.115000000     6.391000000
O     3.112000000     2.850000000     5.865000000
H     2.697000000     3.692000000     5.673000000
H     2.911000000     2.306000000     5.104000000
O    -1.426000000     6.742000000     6.099000000
H    -0.585000000     7.145000000     5.887000000
H    -2.027000000     7.077000000     5.434000000
O    -2.820000000     8.282000000     4.385000000
H    -2.263000000     8.539000000     3.650000000
H    -3.438000000     7.655000000     4.010000000
O    -0.851000000     6.251000000     2.695000000
H    -1.376000000     5.457000000     2.793000000
H    -0.180000000     6.181000000     3.375000000
O     1.932000000     1.080000000     4.121000000
H     2.107000000     0.399000000     3.471000000
H     0.984000000     1.208000000     4.085000000
O    -2.717000000     1.247000000     7.528000000
H    -3.673000000     1.222000000     7.578000000
H    -2.527000000     1.291000000     6.591000000
O    -5.468000000     0.958000000     7.887000000
H    -6.180000000     1.551000000     7.649000000
H    -5.626000000     0.172000000     7.364000000
O    -4.193000000     3.958000000     5.711000000
H    -3.995000000     4.610000000     5.039000000
H    -3.532000000     3.277000000     5.587000000
O    -3.688000000     5.269000000     8.255000000
H    -3.075000000     4.769000000     7.716000000
H    -4.528000000     5.183000000     7.805000000
O    -0.628000000    -0.382000000     8.714000000
H    -1.373000000     0.034000000     8.281000000
H     0.139000000     0.048000000     8.337000000
O    -1.322000000     3.997000000     6.832000000
H    -1.238000000     4.815000000     6.342000000
H    -1.630000000     3.361000000     6.187000000
O    -1.524000000     2.404000000     9.836000000
H    -2.068000000     1.826000000    10.370000000
H    -1.779000000     2.207000000     8.934000000
O     1.995000000     5.527000000     5.726000000
H     2.789000000     5.897000000     6.112000000
H     1.316000000     6.178000000     5.905000000
O     3.303000000     6.737000000     3.163000000
H     3.231000000     7.584000000     3.602000000
H     2.804000000     6.137000000     3.718000000
O    -0.934000000     8.871000000     1.463000000
H    -1.880000000     8.857000000     1.321000000
H    -0.690000000     7.949000000     1.543000000
