215
-1462.41257
C     2.011000000     3.331000000    -1.540000000
H     1.004000000     3.352000000    -1.947000000
C     2.941000000     2.434000000    -2.042000000
C     4.267000000     2.312000000    -1.547000000
H     4.922000000     1.506000000    -1.867000000
C     2.362000000     1.424000000    -3.053000000
O     1.527000000     1.868000000    -4.161000000
H     1.738000000     0.836000000    -2.365000000
O     3.420000000     0.547000000    -3.452000000
C     3.143000000    -0.794000000    -3.297000000
C     3.825000000    -1.450000000    -2.295000000
H     4.524000000    -0.929000000    -1.646000000
C     3.572000000    -2.751000000    -1.893000000
O     4.041000000    -3.091000000    -0.658000000
C     2.566000000    -3.402000000    -2.634000000
C     2.108000000    -4.764000000    -2.246000000
H     1.719000000    -5.380000000    -3.058000000
C     0.928000000    -4.674000000    -1.267000000
C    -0.380000000    -4.650000000    -1.682000000
H    -0.597000000    -4.768000000    -2.741000000
H     2.909000000    -5.347000000    -1.788000000
C     1.949000000    -2.793000000    -3.711000000
H     1.249000000    -3.422000000    -4.255000000
C     2.225000000    -1.467000000    -4.071000000
C     1.413000000    -0.886000000    -5.201000000
H     1.083000000    -1.635000000    -5.923000000
H     2.008000000    -0.273000000    -5.881000000
C     0.196000000    -0.088000000    -4.690000000
C    -1.051000000    -0.662000000    -4.686000000
H    -1.126000000    -1.746000000    -4.704000000
C     0.294000000     1.270000000    -4.368000000
C    -0.780000000     2.039000000    -4.087000000
H    -0.711000000     3.084000000    -3.795000000
C    -2.030000000     1.425000000    -4.060000000
O    -3.090000000     2.136000000    -3.502000000
C    -3.452000000     1.897000000    -2.190000000
C    -3.840000000     3.191000000    -1.479000000
C    -4.790000000     3.157000000    -0.417000000
H    -5.366000000     2.272000000    -0.161000000
C    -3.180000000     4.336000000    -1.826000000
H    -2.599000000     4.354000000    -2.745000000
O    -4.506000000     0.890000000    -2.015000000
H    -2.590000000     1.571000000    -1.591000000
C    -2.193000000     0.110000000    -4.399000000
C    -3.534000000    -0.612000000    -4.308000000
H    -3.638000000    -1.365000000    -5.092000000
H    -4.364000000     0.019000000    -4.631000000
C    -3.805000000    -1.242000000    -2.990000000
C    -3.426000000    -2.607000000    -2.785000000
H    -3.107000000    -3.226000000    -3.619000000
C    -4.198000000    -0.432000000    -1.897000000
C    -4.268000000    -1.005000000    -0.621000000
H    -4.790000000    -0.394000000     0.110000000
C    -3.863000000    -2.264000000    -0.418000000
O    -3.903000000    -2.744000000     0.849000000
C    -2.629000000    -2.631000000     1.471000000
C    -2.717000000    -1.922000000     2.805000000
C    -3.527000000    -0.775000000     3.001000000
H    -4.249000000    -0.548000000     2.220000000
C    -1.863000000    -2.325000000     3.876000000
H    -1.306000000    -3.247000000     3.730000000
O    -2.144000000    -3.934000000     1.540000000
H    -1.927000000    -2.012000000     0.894000000
C    -3.481000000    -3.073000000    -1.482000000
C    -2.913000000    -4.434000000    -1.272000000
H    -3.005000000    -4.989000000    -2.208000000
H    -3.487000000    -5.002000000    -0.537000000
C    -1.479000000    -4.399000000    -0.771000000
C    -1.217000000    -4.220000000     0.548000000
C     0.103000000    -4.193000000     0.948000000
H     0.346000000    -4.190000000     2.008000000
C     1.173000000    -4.379000000     0.084000000
O     2.450000000    -4.343000000     0.588000000
C     3.146000000    -3.100000000     0.470000000
H     2.348000000    -2.361000000     0.304000000
C     3.935000000    -2.775000000     1.699000000
C     4.915000000    -1.758000000     1.663000000
H     5.217000000    -1.336000000     0.707000000
C     3.518000000    -3.255000000     2.899000000
H     2.706000000    -3.977000000     2.890000000
C     4.041000000    -2.838000000     4.062000000
O     3.537000000    -3.138000000     5.294000000
C     5.125000000    -1.976000000     4.064000000
H     5.515000000    -1.721000000     5.047000000
C     5.552000000    -1.389000000     2.870000000
O     6.465000000    -0.334000000     2.909000000
C     6.879000000     0.336000000     1.771000000
C     6.125000000     1.429000000     1.289000000
H     5.240000000     1.712000000     1.853000000
C     8.037000000    -0.006000000     1.068000000
H     8.683000000    -0.774000000     1.487000000
C     8.416000000     0.716000000    -0.078000000
H     9.331000000     0.394000000    -0.570000000
C     7.736000000     1.806000000    -0.519000000
H     7.995000000     2.417000000    -1.380000000
C     6.585000000     2.176000000     0.239000000
O     5.884000000     3.294000000    -0.086000000
C     4.695000000     3.293000000    -0.694000000
C     3.825000000     4.427000000    -0.435000000
H     4.148000000     5.323000000     0.089000000
C     2.444000000     4.416000000    -0.768000000
O     1.567000000     5.457000000    -0.578000000
C     0.660000000     5.995000000    -1.468000000
C    -0.694000000     6.021000000    -1.063000000
H    -1.080000000     5.450000000    -0.221000000
C     1.037000000     6.728000000    -2.583000000
H     2.053000000     6.724000000    -2.971000000
C     0.109000000     7.354000000    -3.346000000
H     0.440000000     7.986000000    -4.165000000
C    -1.225000000     7.323000000    -3.039000000
H    -2.003000000     7.708000000    -3.694000000
C    -1.605000000     6.686000000    -1.876000000
O    -2.931000000     6.627000000    -1.623000000
C    -3.461000000     5.501000000    -1.123000000
C    -4.374000000     5.513000000    -0.050000000
H    -4.423000000     6.408000000     0.565000000
C    -5.001000000     4.369000000     0.327000000
O    -5.842000000     4.382000000     1.419000000
C    -6.137000000     3.262000000     2.198000000
C    -5.061000000     2.730000000     2.873000000
H    -4.086000000     3.208000000     2.917000000
C    -7.436000000     2.642000000     2.168000000
H    -8.172000000     2.999000000     1.452000000
C    -7.591000000     1.448000000     2.912000000
H    -8.561000000     0.958000000     2.883000000
C    -6.569000000     0.949000000     3.697000000
H    -6.714000000     0.115000000     4.379000000
C    -5.323000000     1.542000000     3.639000000
O    -4.314000000     1.017000000     4.458000000
C    -3.489000000    -0.104000000     4.148000000
C    -2.706000000    -0.529000000     5.210000000
H    -2.697000000     0.055000000     6.127000000
C    -1.945000000    -1.696000000     5.115000000
O    -1.164000000    -2.173000000     6.176000000
C    -0.016000000    -3.012000000     6.075000000
C    -0.235000000    -4.341000000     6.460000000
H    -1.226000000    -4.444000000     6.895000000
C     0.775000000    -5.278000000     6.524000000
H     0.625000000    -6.310000000     6.828000000
C     2.033000000    -4.851000000     6.111000000
H     2.897000000    -5.490000000     6.277000000
C     2.279000000    -3.558000000     5.577000000
C     1.247000000    -2.625000000     5.620000000
H     1.491000000    -1.574000000     5.491000000
C    -0.128000000     0.135000000     2.149000000
H     0.012000000    -0.300000000     3.136000000
C     0.285000000    -0.501000000     1.019000000
H     0.622000000    -1.532000000     1.091000000
C     0.196000000     0.128000000    -0.224000000
H     0.401000000    -0.417000000    -1.117000000
C    -0.312000000     1.399000000    -0.346000000
H    -0.455000000     1.818000000    -1.338000000
C    -0.768000000     2.083000000     0.825000000
H    -1.139000000     3.086000000     0.627000000
C    -0.646000000     1.458000000     2.116000000
C    -0.961000000     2.212000000     3.446000000
O    -1.382000000     3.327000000     3.314000000
O    -0.693000000     1.690000000     4.487000000
O    -3.106000000     4.639000000     4.806000000
H    -2.574000000     4.310000000     4.081000000
H    -3.875000000     5.022000000     4.385000000
O    -4.485000000     0.120000000     8.035000000
H    -3.983000000     0.880000000     8.329000000
H    -5.399000000     0.397000000     8.100000000
O     3.435000000     4.936000000     6.523000000
H     3.285000000     5.846000000     6.266000000
H     2.562000000     4.545000000     6.540000000
O    -5.792000000     3.397000000     6.438000000
H    -5.023000000     2.847000000     6.288000000
H    -5.883000000     3.905000000     5.632000000
O     2.127000000     1.626000000     3.969000000
H     1.193000000     1.510000000     4.143000000
H     2.188000000     1.684000000     3.016000000
O     2.081000000     7.959000000     1.778000000
H     2.237000000     7.958000000     2.722000000
H     1.792000000     7.068000000     1.581000000
O     4.399000000     3.795000000     3.971000000
H     4.412000000     4.200000000     4.839000000
H     3.908000000     2.983000000     4.092000000
O    -1.693000000     5.402000000     8.858000000
H    -1.063000000     4.731000000     8.596000000
H    -2.035000000     5.744000000     8.032000000
O    -1.161000000     8.600000000     2.097000000
H    -1.085000000     7.647000000     2.135000000
H    -0.532000000     8.917000000     2.746000000
O    -0.590000000     5.953000000     2.470000000
H    -0.904000000     5.219000000     2.999000000
H     0.364000000     5.893000000     2.522000000
O     2.277000000     2.270000000     1.258000000
H     1.573000000     1.860000000     0.755000000
H     3.018000000     2.296000000     0.654000000
O     0.419000000     1.088000000     6.905000000
H     0.350000000     2.006000000     7.169000000
H    -0.043000000     1.044000000     6.068000000
O    -2.522000000     1.854000000     8.921000000
H    -2.954000000     2.586000000     9.361000000
H    -2.371000000     2.166000000     8.029000000
O    -2.456000000     2.613000000     6.417000000
H    -2.982000000     3.178000000     5.851000000
H    -1.735000000     2.320000000     5.859000000
O     4.090000000     1.344000000     6.352000000
H     3.862000000     0.856000000     7.143000000
H     3.349000000     1.206000000     5.762000000
O     0.625000000    -0.935000000     8.616000000
H     1.560000000    -0.832000000     8.796000000
H     0.426000000    -0.247000000     7.981000000
O     0.363000000     3.998000000     6.028000000
H     0.205000000     4.850000000     5.622000000
H    -0.110000000     3.377000000     5.473000000
O     2.122000000     4.935000000     2.542000000
H     2.942000000     4.712000000     2.984000000
H     2.010000000     4.247000000     1.886000000
O    -2.535000000     6.825000000     6.690000000
H    -2.671000000     6.058000000     6.135000000
H    -3.414000000     7.172000000     6.839000000
