215
-1464.28149
C     2.681000000     4.081000000    -3.025000000
H     1.733000000     4.122000000    -3.556000000
C     3.236000000     2.843000000    -2.845000000
C     4.372000000     2.716000000    -2.014000000
H     4.858000000     1.745000000    -1.967000000
C     2.580000000     1.574000000    -3.330000000
O     1.787000000     1.860000000    -4.498000000
H     1.876000000     1.294000000    -2.533000000
O     3.451000000     0.518000000    -3.577000000
C     3.110000000    -0.778000000    -3.163000000
C     3.772000000    -1.363000000    -2.070000000
H     4.372000000    -0.780000000    -1.376000000
C     3.405000000    -2.642000000    -1.643000000
O     3.900000000    -3.111000000    -0.465000000
C     2.439000000    -3.387000000    -2.374000000
C     2.067000000    -4.779000000    -1.888000000
H     1.711000000    -5.354000000    -2.746000000
C     0.909000000    -4.666000000    -0.911000000
C    -0.380000000    -4.649000000    -1.382000000
H    -0.589000000    -4.662000000    -2.449000000
H     2.875000000    -5.364000000    -1.443000000
C     1.917000000    -2.869000000    -3.586000000
H     1.210000000    -3.461000000    -4.162000000
C     2.216000000    -1.513000000    -3.934000000
C     1.638000000    -0.898000000    -5.209000000
H     1.299000000    -1.736000000    -5.823000000
H     2.344000000    -0.275000000    -5.762000000
C     0.438000000    -0.042000000    -4.855000000
C    -0.842000000    -0.629000000    -4.743000000
H    -0.935000000    -1.689000000    -4.968000000
C     0.506000000     1.271000000    -4.579000000
C    -0.615000000     2.068000000    -4.381000000
H    -0.525000000     3.139000000    -4.219000000
C    -1.863000000     1.455000000    -4.134000000
O    -2.871000000     2.128000000    -3.536000000
C    -3.206000000     1.772000000    -2.179000000
C    -3.394000000     2.954000000    -1.231000000
C    -4.278000000     2.904000000    -0.131000000
H    -4.850000000     1.984000000    -0.033000000
C    -2.636000000     4.129000000    -1.356000000
H    -1.918000000     4.173000000    -2.172000000
O    -4.296000000     0.874000000    -2.137000000
H    -2.305000000     1.259000000    -1.813000000
C    -1.983000000     0.080000000    -4.384000000
C    -3.319000000    -0.735000000    -4.412000000
H    -3.266000000    -1.521000000    -5.168000000
H    -4.128000000    -0.079000000    -4.740000000
C    -3.619000000    -1.240000000    -2.951000000
C    -3.343000000    -2.612000000    -2.686000000
H    -2.876000000    -3.218000000    -3.458000000
C    -4.053000000    -0.481000000    -1.918000000
C    -4.379000000    -1.091000000    -0.724000000
H    -4.683000000    -0.442000000     0.093000000
C    -4.028000000    -2.429000000    -0.445000000
O    -4.138000000    -2.859000000     0.878000000
C    -2.957000000    -2.907000000     1.686000000
C    -3.143000000    -2.399000000     3.139000000
C    -3.914000000    -1.271000000     3.329000000
H    -4.407000000    -0.892000000     2.437000000
C    -2.386000000    -2.961000000     4.182000000
H    -1.553000000    -3.627000000     3.972000000
O    -2.328000000    -4.209000000     1.727000000
H    -2.211000000    -2.230000000     1.246000000
C    -3.420000000    -3.165000000    -1.409000000
C    -2.861000000    -4.507000000    -1.159000000
H    -2.857000000    -5.059000000    -2.101000000
H    -3.575000000    -4.996000000    -0.493000000
C    -1.480000000    -4.450000000    -0.526000000
C    -1.295000000    -4.403000000     0.833000000
C     0.066000000    -4.460000000     1.277000000
H     0.248000000    -4.467000000     2.348000000
C     1.177000000    -4.571000000     0.414000000
O     2.462000000    -4.437000000     0.956000000
C     3.079000000    -3.180000000     0.699000000
H     2.243000000    -2.484000000     0.538000000
C     3.591000000    -2.473000000     1.994000000
C     4.541000000    -1.402000000     1.830000000
H     4.942000000    -1.215000000     0.837000000
C     2.990000000    -2.670000000     3.226000000
H     2.150000000    -3.336000000     3.404000000
C     3.458000000    -1.899000000     4.282000000
O     2.900000000    -1.991000000     5.513000000
C     4.499000000    -0.950000000     4.169000000
H     4.887000000    -0.532000000     5.095000000
C     5.062000000    -0.709000000     2.939000000
O     6.015000000     0.226000000     2.889000000
C     6.482000000     0.724000000     1.711000000
C     5.923000000     1.889000000     1.150000000
H     5.025000000     2.344000000     1.559000000
C     7.478000000     0.123000000     1.055000000
H     7.850000000    -0.810000000     1.470000000
C     8.117000000     0.689000000    -0.041000000
H     8.969000000     0.155000000    -0.454000000
C     7.676000000     1.924000000    -0.538000000
H     8.139000000     2.481000000    -1.348000000
C     6.470000000     2.520000000     0.003000000
O     5.932000000     3.701000000    -0.399000000
C     4.887000000     3.818000000    -1.318000000
C     4.289000000     5.014000000    -1.517000000
H     4.597000000     5.921000000    -1.004000000
C     3.196000000     5.201000000    -2.337000000
O     2.565000000     6.411000000    -2.412000000
C     1.193000000     6.570000000    -2.483000000
C     0.322000000     6.427000000    -1.388000000
H     0.710000000     6.203000000    -0.397000000
C     0.710000000     6.910000000    -3.746000000
H     1.390000000     7.056000000    -4.581000000
C    -0.665000000     6.946000000    -3.994000000
H    -1.123000000     7.069000000    -4.972000000
C    -1.528000000     6.717000000    -2.885000000
H    -2.600000000     6.680000000    -3.061000000
C    -1.019000000     6.501000000    -1.612000000
O    -1.862000000     6.330000000    -0.585000000
C    -2.695000000     5.174000000    -0.433000000
C    -3.600000000     5.142000000     0.609000000
H    -3.697000000     6.026000000     1.236000000
C    -4.318000000     3.974000000     0.841000000
O    -5.076000000     3.918000000     1.998000000
C    -5.734000000     2.761000000     2.388000000
C    -5.164000000     2.052000000     3.411000000
H    -4.217000000     2.446000000     3.772000000
C    -6.967000000     2.424000000     1.945000000
H    -7.516000000     2.989000000     1.196000000
C    -7.636000000     1.300000000     2.523000000
H    -8.644000000     1.026000000     2.222000000
C    -7.018000000     0.549000000     3.582000000
H    -7.542000000    -0.240000000     4.114000000
C    -5.743000000     0.933000000     3.977000000
O    -5.066000000     0.176000000     4.974000000
C    -4.093000000    -0.770000000     4.651000000
C    -3.402000000    -1.373000000     5.701000000
H    -3.702000000    -1.062000000     6.698000000
C    -2.454000000    -2.346000000     5.460000000
O    -1.753000000    -2.919000000     6.536000000
C    -0.378000000    -3.290000000     6.349000000
C    -0.065000000    -4.630000000     6.564000000
H    -0.867000000    -5.259000000     6.942000000
C     1.202000000    -5.057000000     6.273000000
H     1.491000000    -6.100000000     6.382000000
C     2.194000000    -4.176000000     5.971000000
H     3.239000000    -4.450000000     5.849000000
C     1.882000000    -2.862000000     5.816000000
C     0.592000000    -2.441000000     5.879000000
H     0.291000000    -1.448000000     5.556000000
C    -0.208000000    -0.120000000     2.618000000
H    -0.143000000    -0.430000000     3.657000000
C     0.031000000    -1.025000000     1.587000000
H     0.334000000    -2.031000000     1.868000000
C     0.069000000    -0.536000000     0.241000000
H     0.422000000    -1.195000000    -0.518000000
C    -0.215000000     0.755000000    -0.060000000
H    -0.247000000     1.005000000    -1.118000000
C    -0.504000000     1.706000000     0.941000000
H    -0.720000000     2.760000000     0.783000000
C    -0.549000000     1.204000000     2.285000000
C    -0.931000000     2.165000000     3.430000000
O    -1.370000000     3.279000000     3.291000000
O    -0.556000000     1.968000000     4.561000000
O    -2.831000000     5.252000000     4.346000000
H    -2.599000000     4.685000000     3.611000000
H    -3.719000000     5.551000000     4.147000000
O     2.668000000     4.989000000     5.796000000
H     3.048000000     5.296000000     6.619000000
H     1.722000000     5.023000000     5.942000000
O    -5.152000000     2.273000000     7.294000000
H    -4.343000000     2.397000000     6.797000000
H    -5.806000000     2.786000000     6.820000000
O    -5.515000000     6.551000000     3.094000000
H    -5.985000000     5.926000000     2.542000000
H    -5.788000000     7.409000000     2.769000000
O     2.347000000     1.478000000     4.370000000
H     1.415000000     1.406000000     4.574000000
H     2.448000000     1.010000000     3.541000000
O     4.010000000     3.770000000     3.634000000
H     3.627000000     4.352000000     4.292000000
H     3.654000000     2.907000000     3.842000000
O    -0.663000000     7.810000000     2.685000000
H    -0.646000000     6.875000000     2.481000000
H    -0.668000000     7.846000000     3.642000000
O     0.244000000     5.279000000     2.288000000
H    -0.466000000     4.747000000     2.648000000
H     0.811000000     4.651000000     1.841000000
O     2.484000000     1.017000000     1.372000000
H     1.551000000     0.959000000     1.168000000
H     2.826000000     1.656000000     0.747000000
O    -0.082000000     0.710000000     6.726000000
H    -0.802000000     0.608000000     7.348000000
H    -0.423000000     1.310000000     6.062000000
O    -3.096000000     0.851000000     8.812000000
H    -2.575000000     1.542000000     9.221000000
H    -3.723000000     1.318000000     8.260000000
O    -2.751000000     2.870000000     5.931000000
H    -3.098000000     3.584000000     5.397000000
H    -1.878000000     2.706000000     5.573000000
O    -0.344000000     7.944000000     5.261000000
H    -1.094000000     7.570000000     5.724000000
H     0.414000000     7.690000000     5.787000000
O     3.499000000     1.584000000     6.822000000
H     3.814000000     0.694000000     6.981000000
H     3.161000000     1.562000000     5.927000000
O     1.362000000    -0.425000000     9.057000000
H     1.009000000    -0.090000000     8.233000000
H     1.997000000     0.236000000     9.333000000
O     0.051000000     4.244000000     5.979000000
H    -0.538000000     4.880000000     5.573000000
H     0.206000000     3.591000000     5.297000000
O     2.768000000     4.363000000     1.413000000
H     2.956000000     5.288000000     1.250000000
H     3.271000000     4.152000000     2.200000000
O     0.760000000     2.909000000     8.404000000
H     1.032000000     2.050000000     8.081000000
H     0.418000000     3.359000000     7.632000000
O    -2.149000000     6.312000000     6.704000000
H    -2.599000000     6.064000000     5.896000000
H    -2.777000000     6.114000000     7.398000000
