215
-1471.40591
C     2.027000000     4.872000000    -2.174000000
H     1.334000000     4.855000000    -3.011000000
C     2.638000000     3.654000000    -1.836000000
C     3.507000000     3.656000000    -0.717000000
H     3.929000000     2.735000000    -0.324000000
C     2.409000000     2.435000000    -2.683000000
O     1.638000000     2.733000000    -3.895000000
H     1.781000000     1.834000000    -2.009000000
O     3.577000000     1.738000000    -3.046000000
C     3.563000000     0.370000000    -2.849000000
C     4.086000000    -0.159000000    -1.689000000
H     4.477000000     0.537000000    -0.951000000
C     3.971000000    -1.488000000    -1.405000000
O     4.399000000    -1.963000000    -0.158000000
C     3.382000000    -2.404000000    -2.352000000
C     3.207000000    -3.896000000    -2.095000000
H     3.052000000    -4.378000000    -3.062000000
C     2.005000000    -4.235000000    -1.217000000
C     0.822000000    -4.668000000    -1.843000000
H     0.798000000    -4.829000000    -2.918000000
H     4.120000000    -4.298000000    -1.651000000
C     2.825000000    -1.832000000    -3.517000000
H     2.229000000    -2.389000000    -4.235000000
C     3.017000000    -0.490000000    -3.735000000
C     2.403000000     0.089000000    -5.002000000
H     2.500000000    -0.765000000    -5.676000000
H     3.086000000     0.872000000    -5.340000000
C     0.935000000     0.536000000    -4.781000000
C    -0.132000000    -0.343000000    -5.104000000
H     0.077000000    -1.381000000    -5.351000000
C     0.697000000     1.818000000    -4.240000000
C    -0.637000000     2.191000000    -3.932000000
H    -0.734000000     3.224000000    -3.606000000
C    -1.700000000     1.325000000    -4.304000000
O    -2.944000000     1.723000000    -3.858000000
C    -3.333000000     1.198000000    -2.523000000
C    -3.789000000     2.304000000    -1.522000000
C    -4.791000000     2.010000000    -0.640000000
H    -5.217000000     1.011000000    -0.599000000
C    -3.126000000     3.523000000    -1.529000000
H    -2.396000000     3.732000000    -2.306000000
O    -4.145000000     0.027000000    -2.713000000
H    -2.409000000     0.820000000    -2.062000000
C    -1.413000000     0.046000000    -4.850000000
C    -2.526000000    -0.970000000    -4.976000000
H    -2.305000000    -1.625000000    -5.822000000
H    -3.440000000    -0.442000000    -5.255000000
C    -2.766000000    -1.742000000    -3.656000000
C    -2.219000000    -2.992000000    -3.477000000
H    -1.740000000    -3.439000000    -4.344000000
C    -3.573000000    -1.195000000    -2.613000000
C    -3.643000000    -1.861000000    -1.439000000
H    -4.178000000    -1.468000000    -0.579000000
C    -3.072000000    -3.084000000    -1.281000000
O    -3.311000000    -3.604000000     0.004000000
C    -2.260000000    -3.579000000     1.027000000
C    -2.773000000    -3.268000000     2.395000000
C    -3.889000000    -2.465000000     2.559000000
H    -4.436000000    -2.061000000     1.710000000
C    -2.096000000    -3.786000000     3.531000000
H    -1.208000000    -4.390000000     3.369000000
O    -1.477000000    -4.796000000     0.988000000
H    -1.550000000    -2.794000000     0.729000000
C    -2.310000000    -3.715000000    -2.302000000
C    -1.648000000    -5.039000000    -2.004000000
H    -1.212000000    -5.540000000    -2.871000000
H    -2.316000000    -5.668000000    -1.412000000
C    -0.374000000    -4.762000000    -1.170000000
C    -0.334000000    -4.816000000     0.233000000
C     0.906000000    -4.645000000     0.940000000
H     0.933000000    -4.856000000     2.006000000
C     2.015000000    -4.189000000     0.193000000
O     3.144000000    -3.777000000     0.796000000
C     3.402000000    -2.356000000     0.850000000
H     2.454000000    -1.892000000     0.542000000
C     3.713000000    -1.794000000     2.216000000
C     4.492000000    -0.690000000     2.344000000
H     4.986000000    -0.298000000     1.458000000
C     3.128000000    -2.390000000     3.398000000
H     2.626000000    -3.344000000     3.258000000
C     3.385000000    -1.855000000     4.622000000
O     2.852000000    -2.465000000     5.754000000
C     4.086000000    -0.669000000     4.700000000
H     4.172000000    -0.312000000     5.723000000
C     4.696000000    -0.065000000     3.565000000
O     5.431000000     1.053000000     3.793000000
C     5.840000000     1.980000000     2.829000000
C     5.001000000     3.041000000     2.539000000
H     4.055000000     3.139000000     3.066000000
C     7.049000000     1.794000000     2.165000000
H     7.562000000     0.848000000     2.318000000
C     7.348000000     2.620000000     1.126000000
H     8.239000000     2.417000000     0.537000000
C     6.595000000     3.708000000     0.738000000
H     6.890000000     4.420000000    -0.028000000
C     5.382000000     3.860000000     1.428000000
O     4.517000000     4.851000000     1.093000000
C     3.786000000     4.869000000    -0.056000000
C     3.087000000     6.037000000    -0.364000000
H     3.236000000     6.836000000     0.358000000
C     2.145000000     6.010000000    -1.399000000
O     1.477000000     7.182000000    -1.610000000
C     0.158000000     7.077000000    -1.865000000
C    -0.647000000     6.256000000    -1.058000000
H    -0.189000000     5.754000000    -0.210000000
C    -0.399000000     7.730000000    -2.902000000
H     0.177000000     8.448000000    -3.481000000
C    -1.742000000     7.724000000    -3.137000000
H    -2.139000000     8.422000000    -3.869000000
C    -2.557000000     6.892000000    -2.415000000
H    -3.632000000     6.811000000    -2.555000000
C    -2.014000000     6.194000000    -1.315000000
O    -2.857000000     5.620000000    -0.390000000
C    -3.519000000     4.441000000    -0.518000000
C    -4.452000000     4.095000000     0.428000000
H    -4.867000000     4.861000000     1.078000000
C    -5.125000000     2.875000000     0.343000000
O    -6.081000000     2.655000000     1.301000000
C    -6.459000000     1.386000000     1.724000000
C    -5.664000000     0.763000000     2.748000000
H    -4.695000000     1.184000000     3.005000000
C    -7.606000000     0.759000000     1.231000000
H    -8.253000000     1.254000000     0.511000000
C    -7.887000000    -0.544000000     1.715000000
H    -8.740000000    -1.086000000     1.315000000
C    -7.052000000    -1.164000000     2.655000000
H    -7.238000000    -2.199000000     2.928000000
C    -5.999000000    -0.476000000     3.191000000
O    -5.226000000    -1.134000000     4.151000000
C    -4.239000000    -2.065000000     3.849000000
C    -3.515000000    -2.523000000     4.966000000
H    -3.719000000    -2.138000000     5.962000000
C    -2.463000000    -3.443000000     4.820000000
O    -1.683000000    -3.790000000     5.944000000
C    -0.348000000    -4.155000000     5.859000000
C     0.043000000    -5.502000000     5.996000000
H    -0.728000000    -6.257000000     6.126000000
C     1.442000000    -5.841000000     5.936000000
H     1.708000000    -6.893000000     5.997000000
C     2.370000000    -4.763000000     5.838000000
H     3.437000000    -4.927000000     5.964000000
C     1.907000000    -3.468000000     5.730000000
C     0.589000000    -3.123000000     5.673000000
H     0.240000000    -2.098000000     5.768000000
C    -0.722000000    -0.202000000     2.388000000
H    -0.763000000    -0.352000000     3.464000000
C    -0.114000000    -1.075000000     1.496000000
H     0.258000000    -2.031000000     1.855000000
C    -0.021000000    -0.714000000     0.126000000
H     0.485000000    -1.381000000    -0.623000000
C    -0.395000000     0.566000000    -0.276000000
H    -0.118000000     0.952000000    -1.254000000
C    -0.890000000     1.475000000     0.614000000
H    -1.196000000     2.472000000     0.306000000
C    -1.167000000     1.078000000     1.928000000
C    -1.634000000     2.086000000     2.929000000
O    -1.853000000     3.214000000     2.583000000
O    -1.855000000     1.723000000     4.068000000
O    -0.488000000     1.884000000     9.499000000
H    -0.649000000     1.165000000     8.888000000
H     0.244000000     1.582000000    10.037000000
O    -4.193000000     3.573000000     4.095000000
H    -3.903000000     4.331000000     3.587000000
H    -3.430000000     2.996000000     4.121000000
O    -5.819000000     1.255000000     8.026000000
H    -6.435000000     1.818000000     8.495000000
H    -4.958000000     1.522000000     8.348000000
O     1.033000000     7.427000000     2.561000000
H     1.447000000     8.285000000     2.461000000
H     0.911000000     7.329000000     3.505000000
O    -3.762000000     7.527000000     5.505000000
H    -3.135000000     6.975000000     5.973000000
H    -3.267000000     8.315000000     5.282000000
O     2.826000000     3.675000000     5.296000000
H     3.053000000     2.804000000     4.972000000
H     2.037000000     3.914000000     4.809000000
O    -6.414000000     2.123000000     5.710000000
H    -5.582000000     2.322000000     5.281000000
H    -6.170000000     1.604000000     6.477000000
O     2.292000000     1.634000000     7.400000000
H     2.358000000     2.547000000     7.680000000
H     1.782000000     1.667000000     6.591000000
O    -4.917000000     7.872000000     2.596000000
H    -5.612000000     7.218000000     2.531000000
H    -4.777000000     7.980000000     3.537000000
O    -6.867000000     4.589000000     3.552000000
H    -7.024000000     3.708000000     3.212000000
H    -6.138000000     4.484000000     4.164000000
O     1.750000000     2.146000000     2.497000000
H     1.161000000     1.742000000     1.860000000
H     1.597000000     3.086000000     2.402000000
O    -1.646000000     5.545000000     5.375000000
H    -1.876000000     5.597000000     4.447000000
H    -2.127000000     4.783000000     5.698000000
O     0.686000000     7.139000000     5.336000000
H     0.022000000     6.455000000     5.420000000
H     0.788000000     7.484000000     6.223000000
O    -3.009000000     0.753000000     6.088000000
H    -3.736000000     0.350000000     5.614000000
H    -2.550000000     1.271000000     5.427000000
O     0.966000000     4.649000000     2.218000000
H     0.031000000     4.453000000     2.270000000
H     1.023000000     5.590000000     2.385000000
O     0.412000000     1.515000000     5.376000000
H     0.957000000     1.304000000     4.617000000
H    -0.479000000     1.546000000     5.029000000
O    -2.624000000     5.461000000     2.568000000
H    -2.393000000     4.536000000     2.480000000
H    -2.568000000     5.808000000     1.678000000
O    -0.904000000    -0.053000000     7.542000000
H    -1.652000000     0.476000000     7.264000000
H    -0.275000000     0.027000000     6.825000000
O    -0.464000000     8.890000000     0.809000000
H    -0.091000000     8.157000000     1.299000000
H    -1.411000000     8.788000000     0.908000000
