215
-1441.72702
C     1.821000000     4.106000000    -1.518000000
H     0.892000000     4.074000000    -2.081000000
C     2.818000000     3.135000000    -1.651000000
C     3.999000000     3.166000000    -0.891000000
H     4.780000000     2.436000000    -1.085000000
C     2.522000000     1.928000000    -2.597000000
O     1.788000000     2.270000000    -3.703000000
H     1.877000000     1.199000000    -2.085000000
O     3.753000000     1.363000000    -2.993000000
C     3.805000000    -0.028000000    -2.903000000
C     4.517000000    -0.576000000    -1.817000000
H     5.035000000     0.063000000    -1.105000000
C     4.283000000    -1.897000000    -1.366000000
O     4.564000000    -2.224000000    -0.105000000
C     3.455000000    -2.672000000    -2.194000000
C     3.198000000    -4.113000000    -1.897000000
H     3.126000000    -4.680000000    -2.827000000
C     1.859000000    -4.225000000    -1.075000000
C     0.604000000    -4.487000000    -1.728000000
H     0.570000000    -4.469000000    -2.814000000
H     4.010000000    -4.558000000    -1.319000000
C     2.831000000    -2.141000000    -3.320000000
H     2.114000000    -2.762000000    -3.850000000
C     3.008000000    -0.856000000    -3.676000000
C     2.343000000    -0.371000000    -4.948000000
H     2.325000000    -1.254000000    -5.590000000
H     3.014000000     0.355000000    -5.411000000
C     0.972000000     0.209000000    -4.713000000
C    -0.178000000    -0.556000000    -5.072000000
H    -0.025000000    -1.527000000    -5.537000000
C     0.761000000     1.464000000    -4.090000000
C    -0.561000000     1.967000000    -3.969000000
H    -0.663000000     3.015000000    -3.699000000
C    -1.616000000     1.155000000    -4.328000000
O    -2.892000000     1.637000000    -4.047000000
C    -3.448000000     1.171000000    -2.809000000
C    -4.036000000     2.248000000    -1.901000000
C    -4.860000000     2.009000000    -0.784000000
H    -5.246000000     1.030000000    -0.509000000
C    -3.485000000     3.514000000    -2.058000000
H    -2.866000000     3.673000000    -2.937000000
O    -4.385000000     0.044000000    -3.059000000
H    -2.635000000     0.766000000    -2.189000000
C    -1.468000000    -0.158000000    -4.725000000
C    -2.654000000    -1.111000000    -4.982000000
H    -2.428000000    -1.824000000    -5.777000000
H    -3.504000000    -0.557000000    -5.386000000
C    -3.039000000    -1.832000000    -3.748000000
C    -2.425000000    -3.018000000    -3.353000000
H    -1.660000000    -3.462000000    -3.985000000
C    -3.861000000    -1.188000000    -2.834000000
C    -4.081000000    -1.723000000    -1.560000000
H    -4.624000000    -1.123000000    -0.835000000
C    -3.543000000    -2.886000000    -1.200000000
O    -3.666000000    -3.194000000     0.160000000
C    -2.492000000    -3.157000000     1.099000000
C    -3.006000000    -2.842000000     2.485000000
C    -4.026000000    -1.919000000     2.741000000
H    -4.530000000    -1.461000000     1.893000000
C    -2.392000000    -3.401000000     3.631000000
H    -1.514000000    -4.034000000     3.532000000
O    -1.668000000    -4.318000000     1.165000000
H    -1.853000000    -2.347000000     0.719000000
C    -2.706000000    -3.602000000    -2.068000000
C    -1.937000000    -4.830000000    -1.682000000
H    -1.887000000    -5.449000000    -2.580000000
H    -2.502000000    -5.453000000    -0.986000000
C    -0.577000000    -4.632000000    -0.985000000
C    -0.501000000    -4.409000000     0.393000000
C     0.729000000    -4.226000000     0.985000000
H     0.896000000    -4.219000000     2.059000000
C     1.913000000    -4.063000000     0.261000000
O     3.027000000    -3.671000000     0.958000000
C     3.388000000    -2.321000000     0.759000000
H     2.560000000    -1.649000000     0.489000000
C     3.770000000    -1.678000000     2.105000000
C     4.843000000    -0.805000000     2.347000000
H     5.467000000    -0.567000000     1.489000000
C     2.940000000    -2.002000000     3.162000000
H     1.971000000    -2.458000000     2.976000000
C     3.142000000    -1.311000000     4.401000000
O     2.180000000    -1.376000000     5.349000000
C     4.268000000    -0.468000000     4.627000000
H     4.421000000    -0.056000000     5.622000000
C     5.080000000    -0.210000000     3.590000000
O     6.217000000     0.575000000     3.756000000
C     6.587000000     1.424000000     2.777000000
C     5.693000000     2.397000000     2.285000000
H     4.687000000     2.515000000     2.681000000
C     7.825000000     1.295000000     2.092000000
H     8.482000000     0.459000000     2.320000000
C     8.207000000     2.110000000     1.080000000
H     9.180000000     2.002000000     0.607000000
C     7.334000000     3.129000000     0.721000000
H     7.582000000     3.843000000    -0.060000000
C     6.046000000     3.222000000     1.308000000
O     5.277000000     4.271000000     0.771000000
C     4.152000000     4.200000000    -0.008000000
C     3.193000000     5.179000000     0.157000000
H     3.388000000     5.905000000     0.942000000
C     2.012000000     5.136000000    -0.609000000
O     1.114000000     6.048000000    -0.297000000
C     0.143000000     6.365000000    -1.205000000
C    -1.124000000     5.982000000    -0.906000000
H    -1.237000000     5.477000000     0.050000000
C     0.383000000     7.097000000    -2.370000000
H     1.354000000     7.566000000    -2.510000000
C    -0.642000000     7.376000000    -3.181000000
H    -0.465000000     7.917000000    -4.108000000
C    -1.934000000     6.923000000    -2.936000000
H    -2.748000000     7.047000000    -3.645000000
C    -2.190000000     6.169000000    -1.771000000
O    -3.463000000     5.875000000    -1.452000000
C    -3.899000000     4.562000000    -1.279000000
C    -4.885000000     4.386000000    -0.282000000
H    -5.291000000     5.204000000     0.307000000
C    -5.353000000     3.128000000    -0.033000000
O    -6.266000000     2.927000000     1.012000000
C    -6.542000000     1.713000000     1.548000000
C    -5.926000000     1.334000000     2.720000000
H    -5.159000000     1.946000000     3.189000000
C    -7.558000000     0.998000000     0.972000000
H    -8.101000000     1.414000000     0.128000000
C    -7.888000000    -0.229000000     1.617000000
H    -8.689000000    -0.875000000     1.266000000
C    -7.063000000    -0.760000000     2.634000000
H    -7.353000000    -1.711000000     3.071000000
C    -6.157000000     0.055000000     3.244000000
O    -5.369000000    -0.468000000     4.249000000
C    -4.415000000    -1.485000000     4.061000000
C    -3.793000000    -2.077000000     5.136000000
H    -4.059000000    -1.818000000     6.157000000
C    -2.737000000    -3.015000000     4.904000000
O    -2.005000000    -3.526000000     5.901000000
C    -0.678000000    -3.554000000     5.847000000
C    -0.183000000    -4.749000000     6.113000000
H    -0.824000000    -5.626000000     6.068000000
C     1.196000000    -4.856000000     6.163000000
H     1.557000000    -5.877000000     6.251000000
C     2.085000000    -3.793000000     5.842000000
H     3.162000000    -3.935000000     5.837000000
C     1.516000000    -2.538000000     5.614000000
C     0.121000000    -2.421000000     5.685000000
H    -0.321000000    -1.437000000     5.552000000
C    -0.593000000     0.042000000     2.552000000
H    -0.425000000    -0.489000000     3.485000000
C    -0.099000000    -0.471000000     1.347000000
H     0.465000000    -1.399000000     1.404000000
C    -0.414000000     0.145000000     0.168000000
H    -0.113000000    -0.254000000    -0.791000000
C    -1.155000000     1.306000000     0.203000000
H    -1.380000000     1.933000000    -0.656000000
C    -1.551000000     1.923000000     1.353000000
H    -2.170000000     2.817000000     1.340000000
C    -1.266000000     1.286000000     2.592000000
C    -1.699000000     1.869000000     3.909000000
O    -2.015000000     3.091000000     3.999000000
O    -1.341000000     1.361000000     4.906000000
O    -0.221000000    -0.732000000     9.787000000
H     0.410000000    -0.013000000     9.779000000
H    -1.035000000    -0.340000000     9.469000000
O    -4.807000000     3.291000000     5.147000000
H    -5.642000000     3.639000000     4.833000000
H    -4.145000000     3.820000000     4.703000000
O    -6.347000000     0.251000000     7.364000000
H    -7.056000000     0.577000000     6.810000000
H    -5.553000000     0.400000000     6.850000000
O     0.086000000     6.921000000     2.449000000
H     0.641000000     7.589000000     2.851000000
H     0.653000000     6.495000000     1.806000000
O     3.269000000     2.547000000     5.583000000
H     3.645000000     2.179000000     4.783000000
H     2.503000000     2.001000000     5.760000000
O     1.369000000     1.329000000     8.999000000
H     1.057000000     1.071000000     8.131000000
H     0.992000000     2.197000000     9.141000000
O    -4.594000000     6.847000000     2.404000000
H    -4.771000000     7.593000000     2.976000000
H    -3.681000000     6.621000000     2.581000000
O    -7.363000000     4.018000000     4.227000000
H    -7.941000000     3.983000000     3.464000000
H    -7.792000000     4.630000000     4.825000000
O     2.148000000     1.971000000     2.425000000
H     1.648000000     1.733000000     1.645000000
H     1.641000000     2.675000000     2.829000000
O    -1.934000000     3.344000000     6.776000000
H    -1.803000000     3.064000000     5.870000000
H    -2.487000000     2.663000000     7.159000000
O    -3.104000000     6.883000000     5.967000000
H    -3.862000000     6.696000000     6.521000000
H    -2.763000000     6.021000000     5.727000000
O    -3.916000000     1.158000000     6.322000000
H    -4.420000000     1.845000000     5.886000000
H    -3.084000000     1.134000000     5.849000000
O    -5.165000000     4.140000000     8.013000000
H    -5.007000000     5.064000000     7.819000000
H    -5.411000000     3.757000000     7.171000000
O     0.595000000     3.796000000     4.014000000
H     1.093000000     3.114000000     4.464000000
H    -0.312000000     3.648000000     4.283000000
O     0.018000000     3.617000000     9.137000000
H    -0.553000000     3.504000000     8.377000000
H    -0.516000000     3.339000000     9.881000000
O     1.005000000     1.102000000     6.228000000
H     1.045000000     0.178000000     5.979000000
H     0.147000000     1.396000000     5.922000000
O    -2.226000000     5.593000000     3.171000000
H    -1.422000000     5.833000000     2.710000000
H    -2.083000000     4.688000000     3.447000000
O    -2.697000000     0.126000000     8.846000000
H    -3.025000000     0.585000000     8.073000000
H    -3.400000000    -0.480000000     9.082000000
O     2.129000000     5.994000000     4.910000000
H     1.500000000     5.344000000     4.596000000
H     2.020000000     6.738000000     4.318000000
