215
-1449.44119
C     0.773000000     5.185000000    -2.002000000
H    -0.015000000     5.228000000    -2.749000000
C     1.892000000     4.330000000    -2.054000000
C     2.917000000     4.510000000    -1.112000000
H     3.781000000     3.851000000    -1.123000000
C     1.816000000     3.037000000    -2.871000000
O     1.041000000     3.149000000    -4.040000000
H     1.351000000     2.298000000    -2.201000000
O     3.150000000     2.508000000    -3.164000000
C     3.333000000     1.141000000    -3.129000000
C     3.961000000     0.610000000    -2.003000000
H     4.239000000     1.256000000    -1.174000000
C     4.105000000    -0.819000000    -1.853000000
O     4.615000000    -1.253000000    -0.695000000
C     3.417000000    -1.693000000    -2.756000000
C     3.547000000    -3.183000000    -2.682000000
H     3.478000000    -3.579000000    -3.697000000
C     2.489000000    -3.782000000    -1.744000000
C     1.300000000    -4.205000000    -2.333000000
H     1.238000000    -4.066000000    -3.409000000
H     4.505000000    -3.536000000    -2.294000000
C     2.841000000    -1.145000000    -3.897000000
H     2.356000000    -1.718000000    -4.683000000
C     2.877000000     0.244000000    -4.106000000
C     2.084000000     0.838000000    -5.320000000
H     2.144000000     0.122000000    -6.142000000
H     2.525000000     1.743000000    -5.740000000
C     0.622000000     0.944000000    -4.951000000
C    -0.313000000    -0.099000000    -5.112000000
H     0.014000000    -1.034000000    -5.560000000
C     0.160000000     2.160000000    -4.358000000
C    -1.119000000     2.271000000    -3.793000000
H    -1.441000000     3.117000000    -3.191000000
C    -2.056000000     1.215000000    -4.012000000
O    -3.194000000     1.367000000    -3.326000000
C    -3.234000000     0.698000000    -2.061000000
C    -3.741000000     1.635000000    -0.962000000
C    -4.067000000     1.145000000     0.273000000
H    -3.936000000     0.081000000     0.453000000
C    -3.967000000     3.051000000    -1.219000000
H    -3.632000000     3.545000000    -2.128000000
O    -4.116000000    -0.485000000    -2.287000000
H    -2.274000000     0.260000000    -1.750000000
C    -1.658000000     0.049000000    -4.635000000
C    -2.630000000    -1.097000000    -4.695000000
H    -2.374000000    -1.733000000    -5.546000000
H    -3.592000000    -0.757000000    -5.085000000
C    -2.719000000    -2.053000000    -3.542000000
C    -1.948000000    -3.233000000    -3.503000000
H    -1.320000000    -3.572000000    -4.323000000
C    -3.509000000    -1.670000000    -2.415000000
C    -3.450000000    -2.419000000    -1.226000000
H    -4.107000000    -2.166000000    -0.398000000
C    -2.734000000    -3.573000000    -1.186000000
O    -2.701000000    -4.341000000    -0.034000000
C    -1.578000000    -4.173000000     0.841000000
C    -1.932000000    -4.072000000     2.313000000
C    -3.267000000    -3.761000000     2.705000000
H    -4.010000000    -3.560000000     1.938000000
C    -0.892000000    -4.166000000     3.291000000
H     0.119000000    -4.243000000     2.898000000
O    -0.618000000    -5.250000000     0.642000000
H    -0.929000000    -3.312000000     0.623000000
C    -1.976000000    -3.948000000    -2.305000000
C    -1.006000000    -5.184000000    -2.245000000
H    -0.732000000    -5.436000000    -3.271000000
H    -1.449000000    -6.017000000    -1.695000000
C     0.282000000    -4.684000000    -1.575000000
C     0.448000000    -4.819000000    -0.133000000
C     1.651000000    -4.446000000     0.526000000
H     1.719000000    -4.353000000     1.607000000
C     2.640000000    -3.879000000    -0.330000000
O     3.696000000    -3.298000000     0.230000000
C     3.722000000    -1.846000000     0.244000000
H     2.708000000    -1.530000000    -0.043000000
C     4.041000000    -1.401000000     1.643000000
C     4.035000000    -0.068000000     1.911000000
H     3.901000000     0.617000000     1.078000000
C     4.108000000    -2.274000000     2.710000000
H     4.074000000    -3.328000000     2.447000000
C     4.218000000    -1.778000000     4.010000000
O     4.322000000    -2.674000000     5.061000000
C     4.383000000    -0.430000000     4.277000000
H     4.589000000     0.002000000     5.253000000
C     4.335000000     0.407000000     3.152000000
O     4.265000000     1.758000000     3.523000000
C     4.808000000     2.625000000     2.586000000
C     3.964000000     3.656000000     2.110000000
H     2.891000000     3.631000000     2.278000000
C     6.201000000     2.621000000     2.399000000
H     6.865000000     1.934000000     2.917000000
C     6.770000000     3.614000000     1.706000000
H     7.846000000     3.572000000     1.560000000
C     5.936000000     4.607000000     1.117000000
H     6.351000000     5.311000000     0.401000000
C     4.538000000     4.655000000     1.281000000
O     3.778000000     5.660000000     0.820000000
C     2.790000000     5.481000000    -0.099000000
C     1.692000000     6.353000000    -0.116000000
H     1.586000000     7.075000000     0.690000000
C     0.695000000     6.227000000    -1.095000000
O    -0.263000000     7.169000000    -1.152000000
C    -1.598000000     6.950000000    -1.471000000
C    -2.411000000     6.057000000    -0.798000000
H    -2.034000000     5.340000000    -0.073000000
C    -2.144000000     7.941000000    -2.222000000
H    -1.489000000     8.634000000    -2.744000000
C    -3.512000000     7.958000000    -2.498000000
H    -3.892000000     8.650000000    -3.245000000
C    -4.339000000     7.109000000    -1.797000000
H    -5.409000000     7.139000000    -1.986000000
C    -3.782000000     6.123000000    -1.008000000
O    -4.611000000     5.194000000    -0.431000000
C    -4.414000000     3.862000000    -0.233000000
C    -4.835000000     3.363000000     0.957000000
H    -5.360000000     3.953000000     1.704000000
C    -4.659000000     1.979000000     1.192000000
O    -5.194000000     1.508000000     2.351000000
C    -5.648000000     0.185000000     2.520000000
C    -4.869000000    -0.774000000     3.149000000
H    -3.812000000    -0.528000000     3.219000000
C    -7.030000000     0.074000000     2.341000000
H    -7.535000000     0.937000000     1.917000000
C    -7.582000000    -1.161000000     2.732000000
H    -8.653000000    -1.328000000     2.805000000
C    -6.823000000    -2.182000000     3.284000000
H    -7.236000000    -3.106000000     3.681000000
C    -5.473000000    -1.938000000     3.532000000
O    -4.813000000    -2.920000000     4.344000000
C    -3.532000000    -3.467000000     4.037000000
C    -2.499000000    -3.590000000     4.966000000
H    -2.719000000    -3.278000000     5.983000000
C    -1.211000000    -3.963000000     4.610000000
O    -0.195000000    -3.998000000     5.623000000
C     1.131000000    -4.305000000     5.511000000
C     1.549000000    -5.603000000     5.629000000
H     0.949000000    -6.493000000     5.807000000
C     2.874000000    -5.918000000     5.537000000
H     3.169000000    -6.962000000     5.469000000
C     3.774000000    -4.858000000     5.406000000
H     4.805000000    -5.086000000     5.147000000
C     3.331000000    -3.552000000     5.275000000
C     1.954000000    -3.217000000     5.271000000
H     1.669000000    -2.168000000     5.261000000
C    -0.373000000    -0.410000000     2.542000000
H    -0.427000000    -0.998000000     3.454000000
C     0.199000000    -0.969000000     1.419000000
H     0.513000000    -2.008000000     1.478000000
C     0.235000000    -0.297000000     0.195000000
H     0.582000000    -0.845000000    -0.715000000
C    -0.237000000     1.063000000     0.139000000
H    -0.204000000     1.607000000    -0.802000000
C    -0.672000000     1.697000000     1.312000000
H    -1.026000000     2.724000000     1.265000000
C    -0.673000000     0.982000000     2.558000000
C    -0.998000000     1.640000000     3.890000000
O    -1.228000000     2.825000000     3.968000000
O    -1.148000000     0.996000000     4.901000000
O    -2.878000000     4.931000000     3.315000000
H    -2.204000000     4.305000000     3.579000000
H    -2.406000000     5.593000000     2.809000000
O     0.660000000     4.596000000     8.048000000
H    -0.046000000     5.235000000     8.142000000
H     0.700000000     4.419000000     7.108000000
O     2.867000000     7.186000000     4.989000000
H     2.100000000     6.700000000     4.686000000
H     2.576000000     8.098000000     5.017000000
O     3.041000000     3.764000000     8.645000000
H     3.379000000     3.198000000     7.951000000
H     2.213000000     4.097000000     8.301000000
O    -1.384000000     0.098000000     8.428000000
H    -2.113000000    -0.173000000     7.871000000
H    -0.612000000     0.022000000     7.867000000
O     0.133000000     6.869000000     3.889000000
H    -0.343000000     7.168000000     4.663000000
H    -0.411000000     7.145000000     3.151000000
O    -5.941000000     1.236000000     5.358000000
H    -5.747000000     1.222000000     4.421000000
H    -6.721000000     0.689000000     5.449000000
O     0.736000000    -2.315000000     7.979000000
H     1.521000000    -1.895000000     8.330000000
H     0.360000000    -1.663000000     7.387000000
O     2.517000000     2.664000000     6.097000000
H     3.101000000     2.174000000     5.518000000
H     1.795000000     2.939000000     5.532000000
O    -6.114000000     3.899000000     6.492000000
H    -6.537000000     4.065000000     5.650000000
H    -5.949000000     2.956000000     6.495000000
O    -0.985000000     6.909000000     7.983000000
H    -0.968000000     7.857000000     7.852000000
H    -1.820000000     6.631000000     7.606000000
O    -3.294000000    -0.155000000     6.251000000
H    -4.153000000     0.209000000     6.038000000
H    -2.756000000     0.036000000     5.483000000
O     0.890000000     4.105000000     4.643000000
H     0.904000000     4.881000000     4.084000000
H     0.059000000     3.677000000     4.438000000
O    -2.009000000     7.242000000     2.264000000
H    -1.918000000     7.611000000     1.385000000
H    -2.809000000     7.638000000     2.609000000
O    -2.100000000     3.220000000     6.774000000
H    -1.650000000     3.071000000     5.942000000
H    -2.359000000     2.346000000     7.067000000
O    -4.896000000    -2.185000000     7.379000000
H    -4.617000000    -1.694000000     6.606000000
H    -4.835000000    -1.555000000     8.097000000
O     0.712000000     0.339000000     6.484000000
H     1.280000000     1.106000000     6.404000000
H     0.034000000     0.473000000     5.822000000
O    -3.170000000     5.683000000     5.879000000
H    -2.953000000     4.812000000     6.212000000
H    -3.322000000     5.551000000     4.943000000
O    -0.380000000     2.495000000     9.811000000
H    -0.225000000     3.076000000     9.066000000
H    -0.770000000     1.711000000     9.425000000
