215
-1465.37517
C     1.440000000     4.403000000    -1.189000000
H     0.567000000     4.311000000    -1.830000000
C     2.460000000     3.431000000    -1.292000000
C     3.526000000     3.505000000    -0.344000000
H     4.363000000     2.814000000    -0.416000000
C     2.510000000     2.248000000    -2.219000000
O     2.000000000     2.628000000    -3.554000000
H     1.724000000     1.546000000    -1.903000000
O     3.824000000     1.601000000    -2.428000000
C     3.773000000     0.258000000    -2.345000000
C     4.234000000    -0.352000000    -1.157000000
H     4.466000000     0.334000000    -0.346000000
C     4.223000000    -1.708000000    -0.960000000
O     4.471000000    -2.079000000     0.349000000
C     3.693000000    -2.500000000    -1.958000000
C     3.531000000    -3.988000000    -1.701000000
H     3.417000000    -4.516000000    -2.650000000
C     2.167000000    -4.339000000    -1.060000000
C     1.035000000    -4.630000000    -1.839000000
H     1.049000000    -4.618000000    -2.926000000
H     4.321000000    -4.354000000    -1.041000000
C     3.302000000    -1.951000000    -3.195000000
H     3.207000000    -2.565000000    -4.087000000
C     3.304000000    -0.564000000    -3.382000000
C     2.875000000     0.025000000    -4.691000000
H     2.999000000    -0.632000000    -5.554000000
H     3.416000000     0.920000000    -5.004000000
C     1.439000000     0.496000000    -4.665000000
C     0.418000000    -0.346000000    -5.000000000
H     0.632000000    -1.356000000    -5.340000000
C     1.076000000     1.761000000    -4.092000000
C    -0.295000000     2.116000000    -4.037000000
H    -0.602000000     3.121000000    -3.758000000
C    -1.264000000     1.253000000    -4.535000000
O    -2.543000000     1.667000000    -4.337000000
C    -3.082000000     1.194000000    -3.085000000
C    -4.038000000     2.231000000    -2.435000000
C    -5.083000000     1.901000000    -1.596000000
H    -5.481000000     0.901000000    -1.448000000
C    -3.651000000     3.559000000    -2.523000000
H    -2.848000000     3.846000000    -3.198000000
O    -3.872000000    -0.024000000    -3.329000000
H    -2.221000000     1.048000000    -2.417000000
C    -0.951000000    -0.039000000    -4.932000000
C    -2.024000000    -1.122000000    -5.205000000
H    -1.645000000    -1.827000000    -5.948000000
H    -2.893000000    -0.679000000    -5.695000000
C    -2.358000000    -1.748000000    -3.904000000
C    -1.780000000    -3.022000000    -3.646000000
H    -1.005000000    -3.404000000    -4.306000000
C    -3.255000000    -1.207000000    -3.014000000
C    -3.557000000    -1.805000000    -1.825000000
H    -4.203000000    -1.345000000    -1.081000000
C    -3.102000000    -3.069000000    -1.522000000
O    -3.360000000    -3.548000000    -0.261000000
C    -2.206000000    -3.487000000     0.608000000
C    -2.486000000    -2.824000000     1.968000000
C    -3.349000000    -1.717000000     2.036000000
H    -3.884000000    -1.361000000     1.159000000
C    -1.981000000    -3.298000000     3.186000000
H    -1.360000000    -4.190000000     3.147000000
O    -1.582000000    -4.763000000     0.702000000
H    -1.493000000    -2.777000000     0.165000000
C    -2.147000000    -3.678000000    -2.409000000
C    -1.546000000    -5.016000000    -2.059000000
H    -1.304000000    -5.568000000    -2.969000000
H    -2.340000000    -5.569000000    -1.552000000
C    -0.210000000    -4.877000000    -1.210000000
C    -0.376000000    -4.892000000     0.163000000
C     0.726000000    -4.586000000     1.011000000
H     0.633000000    -4.685000000     2.090000000
C     1.906000000    -4.174000000     0.352000000
O     3.009000000    -3.752000000     1.172000000
C     3.266000000    -2.279000000     1.141000000
H     2.480000000    -1.701000000     0.632000000
C     3.507000000    -1.742000000     2.614000000
C     4.233000000    -0.617000000     2.787000000
H     4.772000000    -0.143000000     1.970000000
C     2.975000000    -2.454000000     3.715000000
H     2.394000000    -3.368000000     3.619000000
C     3.274000000    -2.003000000     4.996000000
O     2.905000000    -2.800000000     6.094000000
C     4.108000000    -0.844000000     5.143000000
H     4.413000000    -0.552000000     6.145000000
C     4.558000000    -0.179000000     4.055000000
O     5.394000000     0.870000000     4.272000000
C     5.848000000     1.817000000     3.383000000
C     4.927000000     2.753000000     2.962000000
H     3.933000000     2.787000000     3.400000000
C     7.081000000     1.689000000     2.698000000
H     7.813000000     0.957000000     3.028000000
C     7.449000000     2.556000000     1.683000000
H     8.453000000     2.572000000     1.266000000
C     6.531000000     3.566000000     1.338000000
H     6.771000000     4.201000000     0.489000000
C     5.304000000     3.625000000     1.930000000
O     4.522000000     4.641000000     1.486000000
C     3.512000000     4.522000000     0.619000000
C     2.439000000     5.354000000     0.748000000
H     2.393000000     6.055000000     1.577000000
C     1.359000000     5.281000000    -0.131000000
O     0.237000000     6.057000000     0.108000000
C    -0.653000000     6.432000000    -0.897000000
C    -1.939000000     6.035000000    -1.042000000
H    -2.324000000     5.327000000    -0.313000000
C    -0.103000000     7.294000000    -1.848000000
H     0.954000000     7.506000000    -1.713000000
C    -0.882000000     7.615000000    -2.933000000
H    -0.472000000     8.327000000    -3.645000000
C    -2.175000000     7.124000000    -3.135000000
H    -2.634000000     7.278000000    -4.108000000
C    -2.740000000     6.415000000    -2.089000000
O    -4.042000000     5.906000000    -2.282000000
C    -4.400000000     4.609000000    -1.930000000
C    -5.577000000     4.258000000    -1.225000000
H    -6.177000000     5.026000000    -0.744000000
C    -5.835000000     2.919000000    -0.994000000
O    -6.831000000     2.632000000    -0.019000000
C    -6.717000000     1.585000000     0.765000000
C    -5.588000000     1.276000000     1.505000000
H    -4.687000000     1.874000000     1.396000000
C    -7.749000000     0.696000000     0.676000000
H    -8.549000000     0.876000000    -0.037000000
C    -7.758000000    -0.456000000     1.524000000
H    -8.600000000    -1.140000000     1.452000000
C    -6.773000000    -0.576000000     2.489000000
H    -6.814000000    -1.357000000     3.244000000
C    -5.624000000     0.189000000     2.395000000
O    -4.542000000     0.009000000     3.246000000
C    -3.714000000    -1.131000000     3.240000000
C    -3.229000000    -1.637000000     4.447000000
H    -3.510000000    -1.158000000     5.382000000
C    -2.323000000    -2.744000000     4.446000000
O    -1.884000000    -3.299000000     5.614000000
C    -0.624000000    -3.897000000     5.765000000
C    -0.496000000    -5.268000000     6.159000000
H    -1.403000000    -5.867000000     6.174000000
C     0.756000000    -5.790000000     6.508000000
H     0.810000000    -6.847000000     6.757000000
C     1.918000000    -5.010000000     6.363000000
H     2.912000000    -5.438000000     6.456000000
C     1.792000000    -3.667000000     6.054000000
C     0.517000000    -3.103000000     5.810000000
H     0.433000000    -2.044000000     5.576000000
C    -0.850000000     0.343000000     1.891000000
H    -0.699000000    -0.264000000     2.780000000
C    -0.215000000     0.052000000     0.699000000
H     0.299000000    -0.904000000     0.644000000
C    -0.439000000     0.763000000    -0.469000000
H    -0.110000000     0.373000000    -1.428000000
C    -1.119000000     1.980000000    -0.317000000
H    -1.463000000     2.528000000    -1.190000000
C    -1.638000000     2.394000000     0.901000000
H    -2.291000000     3.263000000     0.873000000
C    -1.578000000     1.551000000     2.009000000
C    -2.201000000     1.946000000     3.263000000
O    -2.922000000     2.895000000     3.310000000
O    -1.860000000     1.390000000     4.303000000
O     0.953000000     0.168000000     7.633000000
H     0.782000000     0.205000000     6.692000000
H     0.113000000    -0.079000000     8.019000000
O    -4.759000000     3.167000000     5.085000000
H    -5.584000000     2.878000000     4.694000000
H    -4.137000000     3.168000000     4.357000000
O    -4.545000000    -0.508000000     8.003000000
H    -5.460000000    -0.478000000     7.723000000
H    -4.167000000     0.307000000     7.674000000
O    -1.093000000     3.638000000     7.855000000
H    -1.961000000     3.988000000     7.655000000
H    -1.215000000     3.142000000     8.664000000
O     2.650000000     4.984000000     5.447000000
H     2.289000000     4.411000000     4.770000000
H     2.848000000     5.800000000     4.988000000
O    -7.164000000     0.747000000     7.318000000
H    -7.696000000     1.449000000     7.692000000
H    -7.054000000     0.992000000     6.399000000
O    -5.733000000     6.175000000     4.139000000
H    -5.750000000     5.553000000     3.412000000
H    -4.806000000     6.257000000     4.364000000
O    -6.519000000     4.994000000     1.759000000
H    -6.388000000     4.162000000     1.303000000
H    -7.312000000     5.359000000     1.368000000
O     1.126000000     2.787000000     2.705000000
H     0.784000000     2.471000000     1.869000000
H     0.827000000     3.695000000     2.759000000
O    -1.485000000     4.388000000     5.088000000
H    -1.997000000     3.734000000     4.613000000
H    -1.309000000     3.983000000     5.938000000
O    -2.502000000     6.838000000     4.612000000
H    -2.100000000     5.996000000     4.824000000
H    -2.646000000     7.256000000     5.461000000
O    -3.551000000     1.610000000     6.793000000
H    -4.223000000     2.096000000     6.314000000
H    -2.993000000     1.238000000     6.111000000
O    -7.203000000     2.620000000     3.878000000
H    -8.117000000     2.337000000     3.839000000
H    -7.113000000     3.239000000     3.153000000
O    -3.601000000     4.494000000     7.572000000
H    -3.826000000     4.733000000     6.672000000
H    -3.945000000     3.607000000     7.676000000
O     0.532000000     5.399000000     3.451000000
H    -0.184000000     5.097000000     4.009000000
H     0.303000000     6.303000000     3.235000000
O     0.752000000     0.840000000     4.673000000
H     0.985000000     1.450000000     3.973000000
H    -0.201000000     0.907000000     4.741000000
O    -3.534000000     5.285000000     2.102000000
H    -2.941000000     6.010000000     2.301000000
H    -3.096000000     4.512000000     2.459000000
O    -1.406000000    -0.769000000     8.282000000
H    -2.346000000    -0.821000000     8.111000000
H    -1.171000000    -1.643000000     8.595000000
O    -4.532000000     7.801000000     1.999000000
H    -4.995000000     8.047000000     1.198000000
H    -4.547000000     6.844000000     1.999000000
