215
-1426.14625
C     2.655000000     4.125000000    -2.116000000
H     1.797000000     4.219000000    -2.776000000
C     3.350000000     2.848000000    -2.187000000
C     4.554000000     2.825000000    -1.455000000
H     5.303000000     2.037000000    -1.447000000
C     2.761000000     1.578000000    -2.803000000
O     2.032000000     1.944000000    -3.986000000
H     2.043000000     1.147000000    -2.089000000
O     3.794000000     0.715000000    -3.313000000
C     3.609000000    -0.612000000    -3.026000000
C     4.052000000    -1.206000000    -1.847000000
H     4.715000000    -0.742000000    -1.121000000
C     3.735000000    -2.520000000    -1.529000000
O     4.062000000    -2.887000000    -0.286000000
C     2.811000000    -3.234000000    -2.283000000
C     2.399000000    -4.639000000    -1.854000000
H     2.233000000    -5.285000000    -2.719000000
C     1.178000000    -4.648000000    -0.870000000
C    -0.074000000    -4.813000000    -1.455000000
H    -0.086000000    -4.865000000    -2.541000000
H     3.210000000    -5.197000000    -1.383000000
C     2.301000000    -2.658000000    -3.414000000
H     1.641000000    -3.232000000    -4.059000000
C     2.705000000    -1.341000000    -3.807000000
C     2.153000000    -0.821000000    -5.124000000
H     2.034000000    -1.718000000    -5.735000000
H     2.752000000    -0.024000000    -5.571000000
C     0.839000000    -0.079000000    -4.818000000
C    -0.358000000    -0.831000000    -4.899000000
H    -0.413000000    -1.857000000    -5.255000000
C     0.835000000     1.232000000    -4.239000000
C    -0.369000000     1.803000000    -3.890000000
H    -0.429000000     2.796000000    -3.451000000
C    -1.573000000     1.142000000    -3.995000000
O    -2.729000000     1.683000000    -3.585000000
C    -3.262000000     1.355000000    -2.299000000
C    -3.718000000     2.639000000    -1.607000000
C    -4.954000000     2.640000000    -0.888000000
H    -5.627000000     1.801000000    -1.041000000
C    -2.856000000     3.694000000    -1.419000000
H    -1.914000000     3.599000000    -1.954000000
O    -4.219000000     0.383000000    -2.656000000
H    -2.500000000     0.883000000    -1.662000000
C    -1.564000000    -0.199000000    -4.508000000
C    -2.850000000    -1.040000000    -4.579000000
H    -2.662000000    -1.790000000    -5.351000000
H    -3.652000000    -0.491000000    -5.076000000
C    -3.348000000    -1.698000000    -3.279000000
C    -2.914000000    -2.927000000    -2.979000000
H    -2.377000000    -3.488000000    -3.741000000
C    -3.965000000    -0.915000000    -2.307000000
C    -4.311000000    -1.419000000    -1.081000000
H    -4.859000000    -0.826000000    -0.353000000
C    -3.842000000    -2.694000000    -0.758000000
O    -4.010000000    -3.077000000     0.488000000
C    -2.933000000    -2.961000000     1.389000000
C    -3.145000000    -2.241000000     2.692000000
C    -4.206000000    -1.299000000     2.816000000
H    -4.757000000    -1.141000000     1.892000000
C    -2.336000000    -2.427000000     3.808000000
H    -1.456000000    -3.064000000     3.760000000
O    -2.272000000    -4.193000000     1.533000000
H    -2.163000000    -2.352000000     0.894000000
C    -3.131000000    -3.464000000    -1.714000000
C    -2.594000000    -4.791000000    -1.315000000
H    -2.595000000    -5.478000000    -2.164000000
H    -3.320000000    -5.278000000    -0.661000000
C    -1.265000000    -4.730000000    -0.681000000
C    -1.164000000    -4.527000000     0.724000000
C     0.143000000    -4.325000000     1.238000000
H     0.274000000    -4.173000000     2.306000000
C     1.297000000    -4.379000000     0.496000000
O     2.514000000    -4.143000000     1.073000000
C     2.996000000    -2.816000000     0.708000000
H     2.169000000    -2.184000000     0.355000000
C     3.528000000    -2.091000000     1.927000000
C     4.648000000    -1.273000000     1.871000000
H     5.170000000    -1.197000000     0.920000000
C     2.915000000    -2.389000000     3.154000000
H     2.003000000    -2.972000000     3.251000000
C     3.449000000    -1.747000000     4.310000000
O     2.908000000    -1.952000000     5.535000000
C     4.633000000    -0.902000000     4.216000000
H     5.196000000    -0.492000000     5.050000000
C     5.188000000    -0.702000000     2.995000000
O     6.366000000     0.026000000     2.900000000
C     6.860000000     0.791000000     1.882000000
C     6.144000000     1.892000000     1.466000000
H     5.192000000     2.203000000     1.888000000
C     8.003000000     0.451000000     1.234000000
H     8.536000000    -0.426000000     1.592000000
C     8.436000000     1.107000000     0.089000000
H     9.247000000     0.675000000    -0.491000000
C     7.740000000     2.287000000    -0.327000000
H     8.040000000     2.906000000    -1.169000000
C     6.627000000     2.627000000     0.394000000
O     6.069000000     3.796000000     0.070000000
C     4.957000000     3.870000000    -0.693000000
C     4.162000000     5.072000000    -0.551000000
H     4.553000000     5.779000000     0.177000000
C     3.021000000     5.208000000    -1.298000000
O     2.348000000     6.321000000    -1.053000000
C     1.095000000     6.572000000    -1.362000000
C     0.099000000     6.037000000    -0.602000000
H     0.395000000     5.409000000     0.234000000
C     0.833000000     7.468000000    -2.320000000
H     1.727000000     7.804000000    -2.838000000
C    -0.523000000     7.719000000    -2.681000000
H    -0.674000000     8.353000000    -3.552000000
C    -1.477000000     6.977000000    -2.081000000
H    -2.494000000     7.246000000    -2.356000000
C    -1.201000000     6.175000000    -1.001000000
O    -2.288000000     5.726000000    -0.238000000
C    -3.239000000     4.779000000    -0.595000000
C    -4.431000000     4.718000000     0.075000000
H    -4.709000000     5.577000000     0.681000000
C    -5.328000000     3.685000000    -0.073000000
O    -6.466000000     3.473000000     0.599000000
C    -6.804000000     2.345000000     1.354000000
C    -5.899000000     1.790000000     2.261000000
H    -4.907000000     2.207000000     2.413000000
C    -8.015000000     1.765000000     1.068000000
H    -8.697000000     2.201000000     0.343000000
C    -8.324000000     0.511000000     1.676000000
H    -9.287000000     0.011000000     1.614000000
C    -7.521000000     0.051000000     2.729000000
H    -7.802000000    -0.859000000     3.254000000
C    -6.292000000     0.667000000     2.994000000
O    -5.487000000     0.329000000     4.049000000
C    -4.520000000    -0.677000000     3.978000000
C    -3.685000000    -0.825000000     5.069000000
H    -3.883000000    -0.314000000     6.008000000
C    -2.567000000    -1.703000000     4.983000000
O    -1.769000000    -1.774000000     6.082000000
C    -0.595000000    -2.571000000     6.087000000
C    -0.604000000    -3.951000000     6.352000000
H    -1.485000000    -4.462000000     6.731000000
C     0.620000000    -4.703000000     6.332000000
H     0.601000000    -5.744000000     6.644000000
C     1.793000000    -4.049000000     6.125000000
H     2.714000000    -4.626000000     6.148000000
C     1.777000000    -2.631000000     5.849000000
C     0.618000000    -1.959000000     5.852000000
H     0.560000000    -0.900000000     5.614000000
C    -0.367000000     0.675000000     2.526000000
H    -0.436000000     0.233000000     3.517000000
C     0.091000000    -0.121000000     1.447000000
H     0.420000000    -1.150000000     1.562000000
C     0.176000000     0.335000000     0.159000000
H     0.394000000    -0.296000000    -0.661000000
C    -0.212000000     1.686000000    -0.016000000
H    -0.165000000     2.082000000    -1.027000000
C    -0.729000000     2.472000000     1.010000000
H    -1.028000000     3.489000000     0.769000000
C    -0.728000000     2.005000000     2.319000000
C    -1.337000000     2.872000000     3.406000000
O    -1.849000000     3.898000000     3.112000000
O    -1.237000000     2.639000000     4.588000000
O    -1.646000000     2.754000000     9.327000000
H    -1.717000000     2.429000000     8.429000000
H    -0.710000000     2.713000000     9.523000000
O    -4.050000000     5.656000000     3.138000000
H    -3.430000000     4.936000000     3.253000000
H    -3.571000000     6.303000000     2.619000000
O     1.664000000     4.889000000     4.843000000
H     2.063000000     5.524000000     5.438000000
H     2.082000000     4.057000000     5.066000000
O     2.664000000     6.669000000     2.042000000
H     2.420000000     7.498000000     1.631000000
H     1.834000000     6.207000000     2.159000000
O    -2.047000000     7.207000000     5.543000000
H    -1.867000000     6.270000000     5.610000000
H    -1.336000000     7.623000000     6.031000000
O     1.240000000     3.688000000     7.934000000
H     0.469000000     3.635000000     7.370000000
H     1.752000000     2.910000000     7.714000000
O    -1.085000000     8.649000000     2.191000000
H    -1.065000000     9.426000000     2.748000000
H    -0.649000000     7.972000000     2.708000000
O    -8.056000000     3.951000000     4.588000000
H    -7.250000000     4.061000000     4.083000000
H    -7.833000000     4.259000000     5.466000000
O     2.759000000     2.893000000     2.246000000
H     2.180000000     2.186000000     1.963000000
H     2.546000000     3.624000000     1.665000000
O    -0.705000000     4.511000000     6.263000000
H     0.118000000     4.659000000     5.796000000
H    -1.038000000     3.688000000     5.906000000
O    -1.471000000     1.573000000     6.963000000
H    -1.163000000     0.667000000     7.000000000
H    -1.538000000     1.764000000     6.028000000
O    -5.373000000     1.821000000     6.487000000
H    -5.519000000     1.417000000     5.632000000
H    -4.838000000     2.592000000     6.298000000
O    -3.777000000     3.556000000     5.188000000
H    -3.737000000     4.502000000     5.051000000
H    -2.947000000     3.228000000     4.844000000
O     3.984000000     2.563000000     4.678000000
H     3.778000000     2.769000000     3.766000000
H     4.049000000     1.609000000     4.700000000
O    -1.945000000     5.753000000     8.268000000
H    -1.980000000     4.901000000     8.703000000
H    -1.359000000     5.618000000     7.523000000
O    -5.883000000     6.128000000     5.072000000
H    -5.328000000     5.822000000     4.355000000
H    -5.339000000     6.032000000     5.854000000
O     2.020000000     0.822000000     7.234000000
H     1.917000000     0.042000000     6.689000000
H     1.392000000     0.701000000     7.946000000
O    -0.006000000     5.778000000     2.917000000
H     0.492000000     5.551000000     3.703000000
H    -0.632000000     5.062000000     2.815000000
O    -3.960000000     8.778000000     1.044000000
H    -3.751000000     8.976000000     0.131000000
H    -3.162000000     8.379000000     1.391000000
