215
-1434.39372
C     0.535000000     5.178000000    -0.949000000
H    -0.077000000     5.069000000    -1.840000000
C     1.785000000     4.536000000    -0.896000000
C     2.600000000     4.773000000     0.222000000
H     3.493000000     4.191000000     0.438000000
C     2.110000000     3.398000000    -1.869000000
O     1.626000000     3.594000000    -3.181000000
H     1.584000000     2.502000000    -1.508000000
O     3.440000000     3.064000000    -1.754000000
C     3.825000000     1.719000000    -1.795000000
C     4.102000000     1.189000000    -0.573000000
H     3.976000000     1.845000000     0.285000000
C     4.495000000    -0.127000000    -0.531000000
O     4.601000000    -0.651000000     0.728000000
C     4.457000000    -1.001000000    -1.633000000
C     4.682000000    -2.494000000    -1.513000000
H     5.149000000    -2.904000000    -2.411000000
C     3.375000000    -3.231000000    -1.185000000
C     2.557000000    -3.809000000    -2.202000000
H     2.661000000    -3.584000000    -3.260000000
H     5.375000000    -2.718000000    -0.700000000
C     4.151000000    -0.439000000    -2.904000000
H     4.218000000    -1.025000000    -3.816000000
C     3.735000000     0.935000000    -2.965000000
C     3.242000000     1.551000000    -4.289000000
H     3.656000000     1.010000000    -5.143000000
H     3.753000000     2.516000000    -4.299000000
C     1.758000000     1.551000000    -4.393000000
C     1.057000000     0.410000000    -4.877000000
H     1.553000000    -0.476000000    -5.267000000
C     0.965000000     2.574000000    -3.819000000
C    -0.382000000     2.553000000    -3.703000000
H    -1.054000000     3.257000000    -3.219000000
C    -1.088000000     1.490000000    -4.292000000
O    -2.458000000     1.460000000    -4.055000000
C    -2.891000000     0.570000000    -2.990000000
C    -4.035000000     1.289000000    -2.267000000
C    -4.840000000     0.543000000    -1.385000000
H    -4.666000000    -0.521000000    -1.243000000
C    -4.077000000     2.666000000    -2.068000000
H    -3.477000000     3.320000000    -2.696000000
O    -3.465000000    -0.648000000    -3.424000000
H    -1.979000000     0.402000000    -2.398000000
C    -0.367000000     0.455000000    -4.811000000
C    -1.105000000    -0.743000000    -5.328000000
H    -0.668000000    -1.192000000    -6.223000000
H    -2.109000000    -0.429000000    -5.621000000
C    -1.381000000    -1.746000000    -4.228000000
C    -0.501000000    -2.777000000    -3.935000000
H     0.479000000    -2.829000000    -4.402000000
C    -2.563000000    -1.681000000    -3.396000000
C    -2.677000000    -2.599000000    -2.381000000
H    -3.595000000    -2.488000000    -1.810000000
C    -1.846000000    -3.668000000    -2.197000000
O    -2.098000000    -4.459000000    -1.104000000
C    -1.255000000    -4.172000000     0.007000000
C    -1.986000000    -4.358000000     1.299000000
C    -3.273000000    -3.864000000     1.494000000
H    -3.689000000    -3.260000000     0.692000000
C    -1.368000000    -4.825000000     2.454000000
H    -0.294000000    -4.992000000     2.422000000
O    -0.138000000    -5.013000000    -0.010000000
H    -0.806000000    -3.173000000    -0.097000000
C    -0.714000000    -3.717000000    -3.001000000
C     0.257000000    -4.893000000    -2.817000000
H     0.706000000    -5.118000000    -3.787000000
H    -0.169000000    -5.805000000    -2.393000000
C     1.354000000    -4.461000000    -1.784000000
C     1.030000000    -4.497000000    -0.444000000
C     1.858000000    -3.964000000     0.507000000
H     1.598000000    -4.072000000     1.557000000
C     3.017000000    -3.296000000     0.146000000
O     3.631000000    -2.644000000     1.200000000
C     3.522000000    -1.257000000     1.265000000
H     2.690000000    -1.030000000     0.582000000
C     3.227000000    -0.807000000     2.724000000
C     3.429000000     0.472000000     3.076000000
H     3.667000000     1.174000000     2.281000000
C     2.889000000    -1.779000000     3.714000000
H     2.785000000    -2.811000000     3.389000000
C     2.640000000    -1.436000000     5.024000000
O     2.260000000    -2.316000000     5.965000000
C     2.943000000    -0.132000000     5.370000000
H     2.865000000     0.179000000     6.409000000
C     3.302000000     0.823000000     4.443000000
O     3.513000000     2.061000000     4.904000000
C     4.098000000     3.102000000     4.235000000
C     3.239000000     4.047000000     3.602000000
H     2.163000000     3.923000000     3.687000000
C     5.465000000     3.205000000     4.090000000
H     6.102000000     2.421000000     4.492000000
C     5.983000000     4.222000000     3.331000000
H     7.070000000     4.228000000     3.314000000
C     5.154000000     5.122000000     2.637000000
H     5.494000000     5.920000000     1.983000000
C     3.782000000     5.101000000     2.902000000
O     2.998000000     6.054000000     2.256000000
C     2.198000000     5.712000000     1.194000000
C     0.982000000     6.364000000     1.028000000
H     0.687000000     7.137000000     1.733000000
C     0.196000000     6.144000000    -0.027000000
O    -0.880000000     6.924000000    -0.196000000
C    -1.883000000     6.624000000    -1.066000000
C    -2.852000000     5.673000000    -0.817000000
H    -2.678000000     4.954000000    -0.020000000
C    -2.040000000     7.443000000    -2.168000000
H    -1.296000000     8.203000000    -2.394000000
C    -3.210000000     7.353000000    -2.946000000
H    -3.413000000     8.055000000    -3.751000000
C    -4.203000000     6.423000000    -2.630000000
H    -5.184000000     6.425000000    -3.098000000
C    -3.983000000     5.570000000    -1.563000000
O    -5.012000000     4.648000000    -1.168000000
C    -4.906000000     3.301000000    -1.175000000
C    -5.851000000     2.604000000    -0.493000000
H    -6.557000000     3.109000000     0.163000000
C    -5.636000000     1.194000000    -0.387000000
O    -6.300000000     0.504000000     0.576000000
C    -6.315000000    -0.853000000     0.678000000
C    -5.569000000    -1.550000000     1.620000000
H    -4.811000000    -0.992000000     2.164000000
C    -7.295000000    -1.522000000     0.050000000
H    -7.871000000    -1.066000000    -0.750000000
C    -7.394000000    -2.924000000     0.172000000
H    -8.165000000    -3.469000000    -0.367000000
C    -6.745000000    -3.569000000     1.168000000
H    -6.831000000    -4.652000000     1.205000000
C    -5.861000000    -2.916000000     1.912000000
O    -5.138000000    -3.540000000     2.888000000
C    -3.903000000    -3.952000000     2.718000000
C    -3.301000000    -4.532000000     3.813000000
H    -3.761000000    -4.572000000     4.797000000
C    -2.022000000    -4.934000000     3.718000000
O    -1.279000000    -5.357000000     4.822000000
C     0.032000000    -5.067000000     5.089000000
C     0.987000000    -6.071000000     4.937000000
H     0.630000000    -7.033000000     4.578000000
C     2.353000000    -5.778000000     5.086000000
H     3.159000000    -6.460000000     4.831000000
C     2.687000000    -4.555000000     5.544000000
H     3.761000000    -4.443000000     5.668000000
C     1.755000000    -3.541000000     5.682000000
C     0.405000000    -3.800000000     5.494000000
H    -0.306000000    -3.004000000     5.700000000
C    -0.956000000    -0.251000000     1.563000000
H    -1.126000000    -1.025000000     2.307000000
C    -0.075000000    -0.461000000     0.495000000
H     0.648000000    -1.271000000     0.429000000
C     0.068000000     0.527000000    -0.502000000
H     0.882000000     0.404000000    -1.262000000
C    -0.647000000     1.720000000    -0.392000000
H    -0.523000000     2.473000000    -1.166000000
C    -1.548000000     1.878000000     0.687000000
H    -2.243000000     2.713000000     0.647000000
C    -1.737000000     0.891000000     1.656000000
C    -2.803000000     1.237000000     2.756000000
O    -3.494000000     2.224000000     2.732000000
O    -2.959000000     0.470000000     3.696000000
O    -5.800000000     1.226000000     3.828000000
H    -5.480000000     1.119000000     4.724000000
H    -5.084000000     1.663000000     3.368000000
O    -1.051000000     0.332000000     5.398000000
H    -0.609000000     1.002000000     4.877000000
H    -1.790000000     0.057000000     4.856000000
O    -7.661000000     1.846000000     6.078000000
H    -7.668000000     1.226000000     5.349000000
H    -7.785000000     1.303000000     6.856000000
O    -4.074000000     5.001000000     2.359000000
H    -4.385000000     4.097000000     2.416000000
H    -4.133000000     5.332000000     3.255000000
O    -0.429000000     3.582000000     6.200000000
H    -1.040000000     3.750000000     6.918000000
H    -0.990000000     3.402000000     5.446000000
O    -3.866000000     7.650000000     1.900000000
H    -3.737000000     6.703000000     1.849000000
H    -4.636000000     7.817000000     1.356000000
O    -7.871000000     2.551000000     2.521000000
H    -6.957000000     2.538000000     2.803000000
H    -8.107000000     1.628000000     2.427000000
O    -2.381000000     3.939000000     8.267000000
H    -2.780000000     3.172000000     7.858000000
H    -3.072000000     4.302000000     8.822000000
O    -4.455000000     2.426000000     6.366000000
H    -5.321000000     2.782000000     6.169000000
H    -4.562000000     1.988000000     7.210000000
O     1.396000000     5.563000000     5.604000000
H     0.830000000     4.807000000     5.761000000
H     0.827000000     6.203000000     5.177000000
O    -3.909000000    -1.676000000     7.605000000
H    -3.810000000    -1.694000000     6.653000000
H    -4.195000000    -0.783000000     7.799000000
O    -1.054000000     4.694000000     3.017000000
H    -1.591000000     4.885000000     2.248000000
H    -1.678000000     4.389000000     3.675000000
O     1.622000000     2.160000000     7.080000000
H     0.759000000     2.461000000     6.795000000
H     2.225000000     2.502000000     6.420000000
O    -2.766000000     3.767000000     4.660000000
H    -3.037000000     3.305000000     3.867000000
H    -3.210000000     3.304000000     5.370000000
O    -7.877000000    -0.877000000     4.886000000
H    -7.745000000    -0.562000000     3.992000000
H    -8.824000000    -0.992000000     4.963000000
O     0.474000000     2.502000000     3.115000000
H    -0.069000000     1.987000000     2.518000000
H     0.102000000     3.383000000     3.077000000
O    -6.308000000    -2.792000000     6.338000000
H    -5.414000000    -2.508000000     6.149000000
H    -6.862000000    -2.157000000     5.883000000
O    -4.167000000    -1.724000000     4.906000000
H    -3.764000000    -0.971000000     4.475000000
H    -4.302000000    -2.359000000     4.202000000
O    -1.346000000     0.890000000     7.944000000
H    -1.737000000     0.050000000     8.187000000
H    -1.306000000     0.868000000     6.988000000
