215
-1453.76399
C    -0.882000000     2.529000000    -4.471000000
H    -1.399000000     1.627000000    -4.787000000
C     0.509000000     2.487000000    -4.135000000
C     1.081000000     3.696000000    -3.774000000
H     2.000000000     3.731000000    -3.194000000
C     1.218000000     1.156000000    -4.019000000
O     0.745000000     0.149000000    -4.995000000
H     0.979000000     0.626000000    -3.085000000
O     2.633000000     1.334000000    -4.074000000
C     3.480000000     0.735000000    -3.120000000
C     3.902000000     1.489000000    -2.021000000
H     3.821000000     2.573000000    -2.008000000
C     4.499000000     0.825000000    -0.952000000
O     4.792000000     1.586000000     0.168000000
C     4.866000000    -0.508000000    -0.980000000
C     5.426000000    -1.270000000     0.176000000
H     5.962000000    -2.117000000    -0.258000000
C     4.447000000    -1.782000000     1.241000000
C     3.931000000    -3.065000000     1.172000000
H     4.412000000    -3.700000000     0.433000000
H     6.293000000    -0.843000000     0.684000000
C     4.419000000    -1.236000000    -2.087000000
H     4.611000000    -2.305000000    -2.134000000
C     3.738000000    -0.650000000    -3.238000000
C     3.232000000    -1.507000000    -4.464000000
H     3.852000000    -2.349000000    -4.777000000
H     3.325000000    -0.822000000    -5.310000000
C     1.784000000    -1.977000000    -4.209000000
C     1.595000000    -3.267000000    -3.654000000
H     2.512000000    -3.814000000    -3.450000000
C     0.657000000    -1.180000000    -4.517000000
C    -0.620000000    -1.718000000    -4.291000000
H    -1.590000000    -1.295000000    -4.540000000
C    -0.741000000    -2.982000000    -3.785000000
O    -2.046000000    -3.245000000    -3.357000000
C    -2.457000000    -2.982000000    -2.031000000
C    -3.896000000    -2.398000000    -1.851000000
C    -4.729000000    -2.831000000    -0.838000000
H    -4.434000000    -3.663000000    -0.204000000
C    -4.281000000    -1.290000000    -2.645000000
H    -3.580000000    -0.935000000    -3.397000000
O    -2.265000000    -4.184000000    -1.298000000
H    -1.772000000    -2.285000000    -1.525000000
C     0.345000000    -3.774000000    -3.422000000
C     0.277000000    -5.064000000    -2.616000000
H     1.137000000    -5.721000000    -2.766000000
H    -0.562000000    -5.703000000    -2.898000000
C     0.075000000    -4.740000000    -1.061000000
C     1.187000000    -4.935000000    -0.230000000
H     2.179000000    -5.161000000    -0.613000000
C    -1.155000000    -4.324000000    -0.515000000
C    -1.231000000    -4.143000000     0.853000000
H    -2.172000000    -4.104000000     1.396000000
C    -0.119000000    -4.383000000     1.672000000
O    -0.276000000    -4.023000000     2.933000000
C     0.047000000    -2.618000000     3.233000000
C    -0.894000000    -1.993000000     4.179000000
C    -2.259000000    -2.232000000     4.032000000
H    -2.645000000    -3.033000000     3.406000000
C    -0.484000000    -0.831000000     4.925000000
H     0.532000000    -0.443000000     4.929000000
O     1.320000000    -2.609000000     3.861000000
H     0.112000000    -2.060000000     2.287000000
C     1.100000000    -4.714000000     1.122000000
C     2.370000000    -4.772000000     1.979000000
H     3.104000000    -5.489000000     1.606000000
H     2.048000000    -5.070000000     2.979000000
C     2.928000000    -3.413000000     2.086000000
C     2.376000000    -2.406000000     2.976000000
C     3.042000000    -1.164000000     3.096000000
H     2.696000000    -0.401000000     3.788000000
C     3.998000000    -0.845000000     2.202000000
O     4.448000000     0.456000000     2.105000000
C     3.835000000     1.409000000     1.226000000
H     2.888000000     1.041000000     0.803000000
C     3.417000000     2.706000000     1.975000000
C     2.952000000     3.782000000     1.232000000
H     2.971000000     3.651000000     0.153000000
C     3.417000000     2.774000000     3.383000000
H     3.702000000     1.881000000     3.933000000
C     3.033000000     3.942000000     3.953000000
O     2.853000000     3.913000000     5.352000000
C     2.430000000     4.917000000     3.214000000
H     1.916000000     5.787000000     3.615000000
C     2.412000000     4.881000000     1.845000000
O     1.797000000     5.904000000     1.230000000
C     2.271000000     6.277000000    -0.051000000
C     1.471000000     5.920000000    -1.141000000
H     0.498000000     5.445000000    -1.044000000
C     3.473000000     6.892000000    -0.253000000
H     4.047000000     7.187000000     0.621000000
C     3.957000000     7.249000000    -1.539000000
H     4.941000000     7.705000000    -1.613000000
C     3.153000000     6.866000000    -2.671000000
H     3.427000000     7.086000000    -3.700000000
C     1.963000000     6.211000000    -2.405000000
O     1.095000000     6.058000000    -3.486000000
C     0.419000000     4.878000000    -3.756000000
C    -0.844000000     4.981000000    -4.259000000
H    -1.380000000     5.924000000    -4.334000000
C    -1.544000000     3.781000000    -4.629000000
O    -2.898000000     3.947000000    -4.988000000
C    -3.712000000     2.895000000    -5.093000000
C    -4.337000000     2.311000000    -3.943000000
H    -4.081000000     2.746000000    -2.981000000
C    -3.816000000     2.259000000    -6.321000000
H    -3.378000000     2.721000000    -7.203000000
C    -4.521000000     1.057000000    -6.454000000
H    -4.583000000     0.561000000    -7.420000000
C    -5.215000000     0.523000000    -5.320000000
H    -5.810000000    -0.385000000    -5.375000000
C    -5.053000000     1.135000000    -4.064000000
O    -5.758000000     0.651000000    -2.978000000
C    -5.433000000    -0.549000000    -2.290000000
C    -6.286000000    -0.996000000    -1.307000000
H    -7.253000000    -0.566000000    -1.059000000
C    -5.877000000    -2.056000000    -0.490000000
O    -6.718000000    -2.553000000     0.466000000
C    -6.231000000    -3.061000000     1.632000000
C    -5.593000000    -2.238000000     2.490000000
H    -5.514000000    -1.183000000     2.239000000
C    -6.283000000    -4.437000000     2.010000000
H    -6.778000000    -5.171000000     1.379000000
C    -5.741000000    -4.957000000     3.210000000
H    -5.878000000    -5.998000000     3.493000000
C    -5.195000000    -4.028000000     4.079000000
H    -4.891000000    -4.378000000     5.062000000
C    -5.166000000    -2.700000000     3.731000000
O    -4.602000000    -1.732000000     4.519000000
C    -3.249000000    -1.436000000     4.581000000
C    -2.826000000    -0.239000000     5.138000000
H    -3.613000000     0.411000000     5.510000000
C    -1.479000000     0.087000000     5.287000000
O    -1.178000000     1.396000000     5.729000000
C     0.006000000     1.860000000     6.282000000
C     0.189000000     1.726000000     7.609000000
H    -0.529000000     1.116000000     8.151000000
C     1.199000000     2.392000000     8.289000000
H     1.414000000     2.263000000     9.347000000
C     2.055000000     3.185000000     7.502000000
H     2.837000000     3.802000000     7.937000000
C     1.986000000     3.147000000     6.109000000
C     0.920000000     2.433000000     5.479000000
H     0.806000000     2.320000000     4.403000000
C    -2.810000000     0.320000000     0.116000000
H    -3.804000000    -0.113000000     0.195000000
C    -1.690000000    -0.507000000     0.274000000
H    -1.814000000    -1.573000000     0.442000000
C    -0.426000000     0.017000000     0.018000000
H     0.464000000    -0.588000000     0.067000000
C    -0.357000000     1.316000000    -0.595000000
H     0.641000000     1.613000000    -0.908000000
C    -1.426000000     2.187000000    -0.654000000
H    -1.326000000     3.127000000    -1.190000000
C    -2.630000000     1.719000000    -0.196000000
C    -3.916000000     2.643000000    -0.094000000
O    -3.961000000     3.807000000    -0.540000000
O    -4.863000000     2.213000000     0.481000000
O    -8.077000000    -0.223000000     2.227000000
H    -7.493000000     0.120000000     2.904000000
H    -8.444000000    -1.021000000     2.609000000
O    -1.658000000     7.356000000    -1.985000000
H    -1.773000000     6.937000000    -1.132000000
H    -2.151000000     6.804000000    -2.592000000
O    -6.170000000     7.521000000    -2.164000000
H    -6.578000000     7.221000000    -1.352000000
H    -6.685000000     7.108000000    -2.857000000
O    -6.510000000     4.808000000     1.791000000
H    -6.108000000     3.952000000     1.647000000
H    -7.127000000     4.908000000     1.066000000
O    -0.776000000     2.347000000     2.596000000
H    -1.076000000     1.477000000     2.333000000
H    -1.161000000     2.481000000     3.462000000
O    -2.398000000     5.842000000     0.070000000
H    -2.106000000     5.730000000     0.974000000
H    -3.019000000     5.127000000    -0.072000000
O    -3.713000000     5.783000000    -2.689000000
H    -4.469000000     6.296000000    -2.402000000
H    -3.638000000     5.084000000    -2.040000000
O    -3.292000000     4.208000000     3.792000000
H    -2.572000000     4.481000000     3.222000000
H    -3.601000000     5.020000000     4.193000000
O    -5.114000000     2.178000000     3.145000000
H    -4.586000000     2.960000000     3.307000000
H    -4.976000000     1.984000000     2.217000000
O    -7.768000000     1.679000000     0.265000000
H    -6.827000000     1.845000000     0.201000000
H    -7.853000000     1.061000000     0.991000000
O    -6.825000000     0.733000000     4.675000000
H    -6.172000000     1.141000000     4.108000000
H    -7.573000000     1.330000000     4.648000000
O    -8.827000000     5.131000000     0.054000000
H    -9.118000000     5.971000000     0.407000000
H    -9.396000000     4.977000000    -0.700000000
O    -6.566000000     3.642000000    -1.480000000
H    -5.741000000     3.752000000    -1.008000000
H    -7.127000000     3.157000000    -0.875000000
O    -5.118000000     5.797000000    -5.062000000
H    -5.884000000     5.858000000    -4.491000000
H    -4.408000000     5.524000000    -4.482000000
O    -0.903000000     5.022000000     2.538000000
H    -0.805000000     4.081000000     2.394000000
H    -0.097000000     5.403000000     2.189000000
O    -7.518000000     4.919000000    -3.691000000
H    -8.398000000     4.550000000    -3.763000000
H    -7.119000000     4.445000000    -2.961000000
O    -7.301000000     6.707000000     3.461000000
H    -7.041000000     5.874000000     3.068000000
H    -6.566000000     6.947000000     4.025000000
O    -5.151000000     6.930000000     0.802000000
H    -4.343000000     6.641000000     0.378000000
H    -5.522000000     6.133000000     1.178000000
O    -9.021000000     1.236000000    -2.830000000
H    -8.223000000     1.255000000    -2.302000000
H    -8.876000000     0.528000000    -3.458000000
