215
-1455.11318
C     1.144000000     4.670000000    -1.099000000
H     0.281000000     4.367000000    -1.686000000
C     2.401000000     4.049000000    -1.316000000
C     3.482000000     4.425000000    -0.532000000
H     4.449000000     4.006000000    -0.798000000
C     2.475000000     2.851000000    -2.193000000
O     1.765000000     3.028000000    -3.397000000
H     2.124000000     2.086000000    -1.484000000
O     3.832000000     2.521000000    -2.521000000
C     4.138000000     1.204000000    -2.453000000
C     4.481000000     0.724000000    -1.243000000
H     4.391000000     1.363000000    -0.369000000
C     4.586000000    -0.647000000    -0.968000000
O     4.698000000    -1.015000000     0.307000000
C     4.362000000    -1.518000000    -2.039000000
C     4.363000000    -2.999000000    -1.851000000
H     4.645000000    -3.481000000    -2.789000000
C     3.129000000    -3.663000000    -1.225000000
C     2.098000000    -4.117000000    -2.085000000
H     2.183000000    -4.059000000    -3.167000000
H     5.264000000    -3.379000000    -1.364000000
C     4.032000000    -1.035000000    -3.368000000
H     3.807000000    -1.708000000    -4.191000000
C     3.825000000     0.341000000    -3.524000000
C     2.975000000     0.794000000    -4.774000000
H     3.137000000     0.130000000    -5.626000000
H     3.255000000     1.774000000    -5.168000000
C     1.544000000     0.878000000    -4.504000000
C     0.639000000    -0.122000000    -4.982000000
H     1.101000000    -0.949000000    -5.513000000
C     1.025000000     1.950000000    -3.810000000
C    -0.392000000     1.979000000    -3.617000000
H    -0.874000000     2.760000000    -3.034000000
C    -1.219000000     0.984000000    -4.120000000
O    -2.563000000     1.119000000    -3.854000000
C    -3.055000000     0.522000000    -2.720000000
C    -3.984000000     1.432000000    -1.971000000
C    -5.015000000     0.886000000    -1.154000000
H    -5.224000000    -0.180000000    -1.114000000
C    -3.809000000     2.818000000    -2.026000000
H    -2.919000000     3.231000000    -2.494000000
O    -3.694000000    -0.672000000    -3.088000000
H    -2.229000000     0.406000000    -2.002000000
C    -0.693000000    -0.148000000    -4.756000000
C    -1.666000000    -1.238000000    -5.201000000
H    -1.266000000    -1.751000000    -6.078000000
H    -2.534000000    -0.722000000    -5.617000000
C    -1.932000000    -2.152000000    -3.992000000
C    -1.161000000    -3.320000000    -3.850000000
H    -0.349000000    -3.397000000    -4.569000000
C    -2.943000000    -1.817000000    -3.025000000
C    -3.212000000    -2.738000000    -2.041000000
H    -3.944000000    -2.498000000    -1.274000000
C    -2.406000000    -3.838000000    -1.843000000
O    -2.492000000    -4.579000000    -0.733000000
C    -1.706000000    -4.243000000     0.404000000
C    -2.478000000    -4.065000000     1.689000000
C    -3.423000000    -3.074000000     1.863000000
H    -3.579000000    -2.447000000     0.989000000
C    -2.110000000    -4.877000000     2.765000000
H    -1.313000000    -5.594000000     2.585000000
O    -0.534000000    -5.092000000     0.410000000
H    -1.324000000    -3.244000000     0.146000000
C    -1.352000000    -4.133000000    -2.741000000
C    -0.305000000    -5.164000000    -2.418000000
H     0.064000000    -5.650000000    -3.324000000
H    -0.870000000    -5.954000000    -1.920000000
C     0.890000000    -4.722000000    -1.522000000
C     0.681000000    -4.698000000    -0.107000000
C     1.681000000    -4.188000000     0.703000000
H     1.443000000    -4.126000000     1.761000000
C     2.875000000    -3.660000000     0.149000000
O     3.642000000    -2.932000000     1.058000000
C     3.554000000    -1.522000000     0.990000000
H     2.681000000    -1.224000000     0.392000000
C     3.382000000    -0.903000000     2.503000000
C     4.072000000     0.223000000     2.819000000
H     4.737000000     0.612000000     2.052000000
C     2.516000000    -1.499000000     3.418000000
H     1.867000000    -2.326000000     3.142000000
C     2.280000000    -0.867000000     4.623000000
O     1.379000000    -1.352000000     5.577000000
C     2.937000000     0.273000000     4.944000000
H     2.742000000     0.740000000     5.906000000
C     3.853000000     0.775000000     4.056000000
O     4.423000000     1.950000000     4.326000000
C     5.078000000     2.894000000     3.469000000
C     4.357000000     3.864000000     2.788000000
H     3.272000000     3.921000000     2.802000000
C     6.489000000     2.730000000     3.320000000
H     6.974000000     1.887000000     3.805000000
C     7.209000000     3.654000000     2.587000000
H     8.280000000     3.494000000     2.495000000
C     6.489000000     4.630000000     1.827000000
H     7.019000000     5.475000000     1.394000000
C     5.111000000     4.781000000     2.020000000
O     4.333000000     5.692000000     1.307000000
C     3.232000000     5.328000000     0.508000000
C     2.013000000     6.009000000     0.676000000
H     2.003000000     6.918000000     1.272000000
C     0.952000000     5.702000000    -0.232000000
O    -0.207000000     6.411000000    -0.140000000
C    -1.237000000     6.441000000    -1.077000000
C    -2.432000000     5.772000000    -0.854000000
H    -2.602000000     5.306000000     0.113000000
C    -1.156000000     7.314000000    -2.187000000
H    -0.224000000     7.874000000    -2.198000000
C    -2.178000000     7.309000000    -3.123000000
H    -2.145000000     7.987000000    -3.972000000
C    -3.304000000     6.462000000    -2.954000000
H    -4.054000000     6.542000000    -3.738000000
C    -3.438000000     5.724000000    -1.768000000
O    -4.569000000     5.087000000    -1.463000000
C    -4.681000000     3.708000000    -1.375000000
C    -5.767000000     3.163000000    -0.636000000
H    -6.488000000     3.799000000    -0.129000000
C    -5.906000000     1.788000000    -0.496000000
O    -6.877000000     1.309000000     0.351000000
C    -6.896000000     0.065000000     0.981000000
C    -5.787000000    -0.455000000     1.685000000
H    -4.900000000     0.172000000     1.719000000
C    -8.086000000    -0.709000000     1.008000000
H    -8.976000000    -0.392000000     0.472000000
C    -8.164000000    -1.852000000     1.786000000
H    -9.054000000    -2.475000000     1.761000000
C    -7.176000000    -2.172000000     2.706000000
H    -7.278000000    -2.954000000     3.455000000
C    -5.917000000    -1.543000000     2.566000000
O    -4.803000000    -1.785000000     3.378000000
C    -4.001000000    -2.863000000     3.096000000
C    -3.495000000    -3.580000000     4.134000000
H    -3.852000000    -3.336000000     5.131000000
C    -2.574000000    -4.561000000     3.998000000
O    -1.832000000    -5.039000000     5.113000000
C    -0.648000000    -4.478000000     5.505000000
C     0.235000000    -5.368000000     6.144000000
H     0.097000000    -6.445000000     6.199000000
C     1.568000000    -4.929000000     6.439000000
H     2.382000000    -5.627000000     6.615000000
C     1.963000000    -3.614000000     6.148000000
H     2.980000000    -3.290000000     6.353000000
C     1.019000000    -2.696000000     5.726000000
C    -0.270000000    -3.166000000     5.322000000
H    -0.907000000    -2.478000000     4.772000000
C    -1.919000000     0.018000000     2.298000000
H    -2.609000000    -0.321000000     3.067000000
C    -1.011000000    -0.895000000     1.806000000
H    -0.881000000    -1.893000000     2.218000000
C    -0.234000000    -0.564000000     0.695000000
H     0.374000000    -1.361000000     0.191000000
C    -0.209000000     0.738000000     0.154000000
H     0.345000000     0.894000000    -0.769000000
C    -1.062000000     1.631000000     0.754000000
H    -1.029000000     2.634000000     0.336000000
C    -1.988000000     1.304000000     1.746000000
C    -2.940000000     2.283000000     2.380000000
O    -2.965000000     3.426000000     1.935000000
O    -3.691000000     2.000000000     3.256000000
O    -5.115000000     5.042000000     1.844000000
H    -5.156000000     4.945000000     0.893000000
H    -4.280000000     4.642000000     2.090000000
O     0.298000000     6.137000000     7.099000000
H    -0.539000000     5.908000000     6.694000000
H     0.950000000     5.952000000     6.423000000
O    -9.310000000     3.153000000     2.944000000
H    -9.421000000     2.991000000     2.007000000
H    -8.599000000     2.569000000     3.205000000
O     1.722000000     6.109000000     4.298000000
H     1.091000000     5.587000000     3.802000000
H     1.349000000     6.990000000     4.308000000
O    -2.574000000     5.942000000     6.365000000
H    -2.681000000     5.002000000     6.512000000
H    -3.385000000     6.211000000     5.935000000
O    -1.139000000     7.258000000     3.304000000
H    -2.039000000     7.320000000     3.624000000
H    -0.931000000     6.325000000     3.352000000
O    -0.341000000     2.106000000     6.483000000
H     0.353000000     2.720000000     6.722000000
H    -1.128000000     2.461000000     6.896000000
O    -1.971000000    -0.379000000     6.637000000
H    -1.503000000     0.449000000     6.532000000
H    -2.758000000    -0.279000000     6.102000000
O    -4.955000000     5.429000000     5.160000000
H    -4.524000000     4.625000000     4.869000000
H    -5.783000000     5.444000000     4.681000000
O    -6.858000000    -0.627000000     5.496000000
H    -6.538000000    -0.504000000     6.390000000
H    -6.084000000    -0.508000000     4.946000000
O    -4.264000000     0.859000000     5.477000000
H    -4.018000000     1.530000000     6.113000000
H    -4.141000000     1.279000000     4.626000000
O    -0.676000000     4.599000000     3.251000000
H    -0.012000000     3.941000000     3.460000000
H    -1.246000000     4.170000000     2.613000000
O    -7.100000000     3.181000000     6.093000000
H    -6.996000000     3.077000000     5.148000000
H    -6.214000000     3.355000000     6.413000000
O    -2.773000000     3.776000000     4.893000000
H    -3.231000000     3.197000000     4.283000000
H    -2.095000000     4.195000000     4.362000000
O    -4.559000000     7.488000000     2.989000000
H    -4.954000000     6.744000000     2.535000000
H    -4.727000000     7.320000000     3.917000000
O     0.761000000     2.473000000     3.915000000
H     0.671000000     1.630000000     3.471000000
H     0.345000000     2.341000000     4.767000000
O    -4.748000000     3.773000000     7.519000000
H    -4.895000000     4.718000000     7.477000000
H    -5.377000000     3.462000000     8.170000000
O    -6.325000000     2.870000000     3.450000000
H    -5.674000000     2.179000000     3.327000000
H    -5.877000000     3.671000000     3.176000000
O    -2.226000000     2.974000000     8.151000000
H    -2.037000000     3.402000000     8.986000000
H    -3.109000000     3.267000000     7.927000000
