215
-1453.86874
C     1.034000000     4.854000000    -1.530000000
H     0.325000000     4.694000000    -2.338000000
C     2.103000000     4.007000000    -1.391000000
C     2.926000000     4.127000000    -0.262000000
H     3.701000000     3.382000000    -0.102000000
C     2.175000000     2.858000000    -2.352000000
O     1.489000000     3.099000000    -3.607000000
H     1.625000000     2.077000000    -1.807000000
O     3.548000000     2.376000000    -2.654000000
C     3.765000000     1.041000000    -2.533000000
C     4.248000000     0.633000000    -1.294000000
H     4.395000000     1.442000000    -0.583000000
C     4.439000000    -0.697000000    -1.046000000
O     4.843000000    -1.107000000     0.136000000
C     4.027000000    -1.670000000    -2.017000000
C     4.203000000    -3.117000000    -1.715000000
H     4.454000000    -3.705000000    -2.600000000
C     2.868000000    -3.681000000    -1.099000000
C     1.862000000    -4.167000000    -1.892000000
H     2.001000000    -4.316000000    -2.960000000
H     5.076000000    -3.212000000    -1.066000000
C     3.518000000    -1.226000000    -3.240000000
H     3.194000000    -1.843000000    -4.075000000
C     3.344000000     0.121000000    -3.481000000
C     2.674000000     0.660000000    -4.774000000
H     2.749000000    -0.028000000    -5.619000000
H     3.113000000     1.634000000    -4.999000000
C     1.172000000     0.869000000    -4.506000000
C     0.428000000    -0.247000000    -4.655000000
H     0.865000000    -1.194000000    -4.962000000
C     0.685000000     2.080000000    -4.055000000
C    -0.685000000     2.253000000    -4.070000000
H    -1.080000000     3.215000000    -3.755000000
C    -1.519000000     1.126000000    -4.371000000
O    -2.859000000     1.196000000    -4.074000000
C    -3.380000000     0.433000000    -2.876000000
C    -4.402000000     1.304000000    -2.134000000
C    -5.394000000     0.690000000    -1.399000000
H    -5.531000000    -0.385000000    -1.491000000
C    -4.135000000     2.667000000    -1.995000000
H    -3.274000000     3.095000000    -2.503000000
O    -3.830000000    -0.923000000    -3.255000000
H    -2.578000000     0.331000000    -2.129000000
C    -0.921000000    -0.112000000    -4.599000000
C    -1.761000000    -1.320000000    -5.001000000
H    -1.216000000    -1.847000000    -5.787000000
H    -2.670000000    -0.983000000    -5.504000000
C    -2.072000000    -2.274000000    -3.926000000
C    -1.183000000    -3.332000000    -3.620000000
H    -0.284000000    -3.361000000    -4.229000000
C    -3.063000000    -1.984000000    -3.018000000
C    -3.264000000    -2.714000000    -1.904000000
H    -4.035000000    -2.433000000    -1.191000000
C    -2.387000000    -3.775000000    -1.598000000
O    -2.475000000    -4.430000000    -0.368000000
C    -1.531000000    -3.981000000     0.642000000
C    -2.255000000    -3.666000000     1.945000000
C    -3.647000000    -3.238000000     1.985000000
H    -4.218000000    -3.214000000     1.060000000
C    -1.550000000    -3.732000000     3.169000000
H    -0.473000000    -3.867000000     3.108000000
O    -0.497000000    -4.961000000     0.851000000
H    -1.095000000    -3.003000000     0.390000000
C    -1.360000000    -4.075000000    -2.502000000
C    -0.423000000    -5.192000000    -2.129000000
H    -0.014000000    -5.743000000    -2.978000000
H    -1.007000000    -5.993000000    -1.670000000
C     0.708000000    -4.728000000    -1.268000000
C     0.631000000    -4.674000000     0.159000000
C     1.608000000    -4.153000000     0.956000000
H     1.587000000    -4.081000000     2.041000000
C     2.814000000    -3.724000000     0.330000000
O     3.805000000    -3.095000000     1.169000000
C     3.966000000    -1.641000000     1.165000000
H     2.994000000    -1.150000000     1.013000000
C     4.274000000    -1.064000000     2.489000000
C     4.910000000     0.195000000     2.705000000
H     5.249000000     0.655000000     1.780000000
C     3.688000000    -1.642000000     3.601000000
H     3.117000000    -2.561000000     3.495000000
C     3.801000000    -1.163000000     4.894000000
O     3.281000000    -1.794000000     6.043000000
C     4.500000000     0.032000000     5.006000000
H     4.651000000     0.451000000     5.998000000
C     5.083000000     0.686000000     3.988000000
O     5.745000000     1.880000000     4.216000000
C     5.831000000     2.910000000     3.328000000
C     4.621000000     3.560000000     2.915000000
H     3.655000000     3.241000000     3.298000000
C     7.035000000     3.356000000     2.792000000
H     7.955000000     2.867000000     3.102000000
C     7.079000000     4.436000000     1.883000000
H     8.004000000     4.821000000     1.462000000
C     5.915000000     5.022000000     1.485000000
H     6.063000000     5.843000000     0.788000000
C     4.693000000     4.613000000     2.007000000
O     3.594000000     5.388000000     1.774000000
C     2.806000000     5.199000000     0.627000000
C     1.747000000     6.143000000     0.418000000
H     1.558000000     6.976000000     1.090000000
C     0.885000000     5.912000000    -0.655000000
O    -0.173000000     6.792000000    -0.749000000
C    -1.415000000     6.602000000    -1.340000000
C    -2.234000000     5.650000000    -0.831000000
H    -1.940000000     5.110000000     0.065000000
C    -1.767000000     7.466000000    -2.368000000
H    -1.119000000     8.235000000    -2.782000000
C    -3.065000000     7.287000000    -2.868000000
H    -3.412000000     7.946000000    -3.659000000
C    -3.978000000     6.325000000    -2.386000000
H    -5.004000000     6.115000000    -2.681000000
C    -3.514000000     5.507000000    -1.375000000
O    -4.476000000     4.712000000    -0.768000000
C    -4.800000000     3.390000000    -1.069000000
C    -5.863000000     2.832000000    -0.365000000
H    -6.430000000     3.348000000     0.406000000
C    -6.158000000     1.466000000    -0.532000000
O    -7.159000000     0.948000000     0.223000000
C    -7.140000000    -0.350000000     0.688000000
C    -6.266000000    -0.732000000     1.674000000
H    -5.657000000     0.087000000     2.049000000
C    -7.972000000    -1.390000000     0.128000000
H    -8.605000000    -1.157000000    -0.725000000
C    -7.928000000    -2.700000000     0.636000000
H    -8.501000000    -3.456000000     0.106000000
C    -7.107000000    -3.026000000     1.730000000
H    -7.085000000    -3.998000000     2.217000000
C    -6.269000000    -2.018000000     2.227000000
O    -5.484000000    -2.241000000     3.268000000
C    -4.180000000    -2.754000000     3.234000000
C    -3.410000000    -2.786000000     4.369000000
H    -3.796000000    -2.315000000     5.269000000
C    -2.083000000    -3.218000000     4.344000000
O    -1.356000000    -2.923000000     5.469000000
C    -0.106000000    -3.282000000     5.813000000
C     0.212000000    -4.671000000     5.951000000
H    -0.609000000    -5.367000000     5.800000000
C     1.541000000    -5.042000000     6.198000000
H     1.699000000    -6.110000000     6.324000000
C     2.548000000    -4.054000000     6.269000000
H     3.602000000    -4.294000000     6.385000000
C     2.229000000    -2.719000000     6.057000000
C     0.913000000    -2.288000000     5.816000000
H     0.724000000    -1.224000000     5.699000000
C    -1.026000000    -0.110000000     1.995000000
H    -1.402000000    -0.194000000     3.012000000
C    -0.108000000    -0.991000000     1.510000000
H     0.249000000    -1.802000000     2.139000000
C     0.305000000    -0.864000000     0.249000000
H     0.937000000    -1.662000000    -0.166000000
C     0.002000000     0.229000000    -0.586000000
H     0.390000000     0.267000000    -1.600000000
C    -0.772000000     1.259000000    -0.030000000
H    -0.975000000     2.179000000    -0.572000000
C    -1.314000000     1.094000000     1.307000000
C    -2.229000000     2.127000000     1.886000000
O    -2.047000000     3.293000000     1.625000000
O    -3.007000000     1.701000000     2.734000000
O    -4.211000000     4.824000000     2.445000000
H    -4.883000000     4.915000000     1.770000000
H    -3.516000000     4.317000000     2.025000000
O     0.713000000     6.260000000     6.974000000
H     0.992000000     5.728000000     6.229000000
H     0.202000000     5.661000000     7.518000000
O    -8.501000000     1.309000000     2.864000000
H    -9.004000000     1.715000000     2.158000000
H    -7.615000000     1.656000000     2.758000000
O     1.359000000     4.957000000     4.908000000
H     1.018000000     4.132000000     4.560000000
H     2.202000000     5.072000000     4.469000000
O    -3.086000000     6.206000000     6.311000000
H    -2.785000000     5.598000000     5.636000000
H    -2.680000000     5.888000000     7.118000000
O    -1.599000000     8.145000000     2.834000000
H    -0.777000000     8.397000000     3.256000000
H    -1.595000000     7.188000000     2.856000000
O     1.430000000     2.016000000     6.455000000
H     2.140000000     2.392000000     6.976000000
H     0.640000000     2.189000000     6.967000000
O    -3.114000000     1.319000000     8.304000000
H    -2.391000000     1.920000000     8.124000000
H    -3.285000000     0.891000000     7.466000000
O    -6.367000000    -0.536000000     5.944000000
H    -6.573000000     0.390000000     5.819000000
H    -5.480000000    -0.633000000     5.598000000
O    -3.859000000     0.359000000     5.077000000
H    -4.529000000     0.977000000     4.782000000
H    -3.186000000     0.393000000     4.397000000
O    -0.613000000     5.698000000     2.261000000
H     0.239000000     5.286000000     2.115000000
H    -1.248000000     5.046000000     1.963000000
O    -1.771000000     4.278000000     4.744000000
H    -2.388000000     3.814000000     4.179000000
H    -1.233000000     4.791000000     4.140000000
O    -4.254000000     7.250000000     3.490000000
H    -4.218000000     6.390000000     3.071000000
H    -4.150000000     7.065000000     4.424000000
O    -5.138000000     3.685000000     8.100000000
H    -5.044000000     4.002000000     8.998000000
H    -4.280000000     3.318000000     7.884000000
O     0.561000000     2.897000000     3.087000000
H    -0.270000000     3.075000000     2.646000000
H     0.490000000     1.986000000     3.373000000
O    -6.510000000     2.001000000     6.313000000
H    -7.184000000     2.678000000     6.240000000
H    -6.289000000     1.983000000     7.244000000
O    -5.772000000     2.641000000     3.210000000
H    -4.870000000     2.381000000     3.022000000
H    -5.739000000     3.596000000     3.268000000
O    -1.183000000     2.904000000     7.385000000
H    -1.390000000     3.695000000     7.883000000
H    -1.239000000     3.177000000     6.469000000
O    -3.843000000     8.167000000     0.747000000
H    -4.649000000     8.311000000     1.243000000
H    -3.162000000     8.085000000     1.416000000
