215
-1430.72464
C    -1.262000000     4.741000000    -1.981000000
H    -1.951000000     3.992000000    -2.361000000
C     0.073000000     4.520000000    -2.190000000
C     0.976000000     5.312000000    -1.545000000
H     2.027000000     5.035000000    -1.525000000
C     0.552000000     3.327000000    -2.959000000
O    -0.265000000     3.029000000    -4.129000000
H     0.658000000     2.450000000    -2.305000000
O     1.894000000     3.440000000    -3.458000000
C     2.715000000     2.323000000    -3.315000000
C     3.430000000     2.209000000    -2.169000000
H     3.466000000     3.125000000    -1.585000000
C     4.094000000     1.051000000    -1.919000000
O     4.796000000     0.918000000    -0.779000000
C     3.986000000    -0.076000000    -2.769000000
C     4.720000000    -1.402000000    -2.544000000
H     4.988000000    -1.791000000    -3.528000000
C     3.993000000    -2.422000000    -1.664000000
C     3.128000000    -3.441000000    -2.170000000
H     3.041000000    -3.536000000    -3.249000000
H     5.668000000    -1.319000000    -2.008000000
C     3.212000000     0.022000000    -3.871000000
H     3.029000000    -0.835000000    -4.515000000
C     2.575000000     1.221000000    -4.213000000
C     1.534000000     1.053000000    -5.320000000
H     1.855000000     0.337000000    -6.080000000
H     1.550000000     2.000000000    -5.863000000
C     0.118000000     0.768000000    -4.751000000
C    -0.299000000    -0.553000000    -4.870000000
H     0.355000000    -1.281000000    -5.343000000
C    -0.682000000     1.759000000    -4.213000000
C    -1.992000000     1.407000000    -3.837000000
H    -2.677000000     2.175000000    -3.485000000
C    -2.387000000     0.129000000    -3.946000000
O    -3.510000000    -0.094000000    -3.220000000
C    -3.446000000    -0.992000000    -2.025000000
C    -4.350000000    -0.445000000    -0.972000000
C    -4.462000000    -1.136000000     0.231000000
H    -3.811000000    -2.005000000     0.273000000
C    -4.907000000     0.849000000    -1.122000000
H    -4.803000000     1.475000000    -2.005000000
O    -3.743000000    -2.354000000    -2.308000000
H    -2.424000000    -0.981000000    -1.618000000
C    -1.573000000    -0.899000000    -4.420000000
C    -2.084000000    -2.323000000    -4.584000000
H    -1.639000000    -2.826000000    -5.445000000
H    -3.149000000    -2.339000000    -4.828000000
C    -1.800000000    -3.177000000    -3.378000000
C    -0.639000000    -3.943000000    -3.330000000
H     0.059000000    -3.824000000    -4.155000000
C    -2.644000000    -3.213000000    -2.226000000
C    -2.260000000    -3.915000000    -1.027000000
H    -2.925000000    -3.814000000    -0.172000000
C    -1.059000000    -4.479000000    -0.978000000
O    -0.670000000    -4.968000000     0.315000000
C     0.287000000    -4.181000000     1.149000000
C    -0.110000000    -4.339000000     2.691000000
C    -1.405000000    -4.657000000     2.992000000
H    -2.136000000    -4.708000000     2.189000000
C     0.839000000    -4.067000000     3.691000000
H     1.841000000    -3.707000000     3.474000000
O     1.626000000    -4.678000000     0.973000000
H     0.223000000    -3.109000000     0.910000000
C    -0.215000000    -4.530000000    -2.112000000
C     1.200000000    -5.137000000    -1.926000000
H     1.525000000    -5.486000000    -2.909000000
H     0.955000000    -6.020000000    -1.333000000
C     2.271000000    -4.171000000    -1.335000000
C     2.393000000    -3.975000000     0.063000000
C     3.273000000    -3.054000000     0.570000000
H     3.425000000    -3.046000000     1.647000000
C     4.067000000    -2.234000000    -0.267000000
O     4.763000000    -1.197000000     0.316000000
C     4.213000000     0.168000000     0.343000000
H     3.168000000     0.052000000     0.019000000
C     4.171000000     0.797000000     1.734000000
C     3.856000000     2.207000000     1.755000000
H     3.846000000     2.744000000     0.810000000
C     4.157000000     0.098000000     2.909000000
H     4.287000000    -0.979000000     2.839000000
C     4.067000000     0.787000000     4.163000000
O     4.119000000     0.163000000     5.403000000
C     3.843000000     2.118000000     4.196000000
H     3.679000000     2.659000000     5.124000000
C     3.591000000     2.881000000     2.961000000
O     3.218000000     4.212000000     3.093000000
C     3.479000000     5.173000000     2.116000000
C     2.404000000     5.821000000     1.521000000
H     1.375000000     5.665000000     1.835000000
C     4.777000000     5.549000000     1.667000000
H     5.582000000     4.959000000     2.099000000
C     4.993000000     6.489000000     0.706000000
H     5.946000000     6.757000000     0.257000000
C     3.909000000     7.081000000     0.145000000
H     4.091000000     7.814000000    -0.637000000
C     2.615000000     6.701000000     0.450000000
O     1.540000000     7.216000000    -0.284000000
C     0.614000000     6.463000000    -0.945000000
C    -0.757000000     6.778000000    -0.880000000
H    -1.149000000     7.737000000    -0.550000000
C    -1.728000000     5.826000000    -1.333000000
O    -3.111000000     6.062000000    -1.110000000
C    -4.184000000     5.296000000    -1.542000000
C    -4.632000000     4.219000000    -0.783000000
H    -4.109000000     3.944000000     0.130000000
C    -4.978000000     5.738000000    -2.601000000
H    -4.592000000     6.575000000    -3.177000000
C    -6.175000000     5.109000000    -2.930000000
H    -6.683000000     5.437000000    -3.833000000
C    -6.487000000     3.892000000    -2.268000000
H    -7.341000000     3.300000000    -2.587000000
C    -5.820000000     3.602000000    -1.109000000
O    -6.268000000     2.536000000    -0.263000000
C    -5.718000000     1.329000000    -0.086000000
C    -5.971000000     0.602000000     1.029000000
H    -6.574000000     0.974000000     1.853000000
C    -5.202000000    -0.581000000     1.313000000
O    -5.424000000    -1.138000000     2.585000000
C    -5.333000000    -2.468000000     2.977000000
C    -4.149000000    -2.965000000     3.583000000
H    -3.324000000    -2.308000000     3.848000000
C    -6.372000000    -3.330000000     2.661000000
H    -7.213000000    -2.904000000     2.120000000
C    -6.336000000    -4.672000000     3.041000000
H    -7.201000000    -5.322000000     2.935000000
C    -5.258000000    -5.076000000     3.813000000
H    -5.332000000    -6.039000000     4.313000000
C    -4.155000000    -4.233000000     3.992000000
O    -3.129000000    -4.821000000     4.638000000
C    -1.834000000    -4.643000000     4.313000000
C    -0.911000000    -4.388000000     5.359000000
H    -1.178000000    -4.392000000     6.413000000
C     0.386000000    -3.982000000     5.032000000
O     1.249000000    -3.638000000     6.038000000
C     2.531000000    -3.178000000     5.881000000
C     3.576000000    -4.017000000     5.689000000
H     3.497000000    -5.100000000     5.741000000
C     4.808000000    -3.418000000     5.305000000
H     5.648000000    -4.040000000     5.004000000
C     5.000000000    -2.062000000     5.268000000
H     5.970000000    -1.624000000     5.043000000
C     3.931000000    -1.197000000     5.558000000
C     2.731000000    -1.779000000     5.889000000
H     1.856000000    -1.162000000     6.081000000
C    -0.046000000    -0.660000000     1.551000000
H     0.390000000    -1.298000000     2.316000000
C     0.457000000    -0.747000000     0.243000000
H     1.272000000    -1.439000000     0.049000000
C    -0.024000000     0.074000000    -0.779000000
H     0.425000000    -0.093000000    -1.760000000
C    -0.966000000     1.016000000    -0.526000000
H    -1.270000000     1.749000000    -1.269000000
C    -1.552000000     1.071000000     0.742000000
H    -2.425000000     1.685000000     0.948000000
C    -1.125000000     0.159000000     1.791000000
C    -1.744000000     0.127000000     3.124000000
O    -2.689000000     0.895000000     3.414000000
O    -1.476000000    -0.656000000     4.019000000
O     0.072000000     1.026000000     5.761000000
H    -0.653000000     0.423000000     5.594000000
H     0.181000000     1.501000000     4.937000000
O    -7.448000000    -0.969000000     4.429000000
H    -8.182000000    -1.169000000     3.847000000
H    -6.741000000    -0.705000000     3.841000000
O    -6.333000000     0.218000000     6.972000000
H    -5.409000000     0.314000000     6.741000000
H    -6.769000000     0.027000000     6.141000000
O     0.922000000     2.115000000     3.457000000
H     0.545000000     2.404000000     2.626000000
H     1.689000000     1.601000000     3.206000000
O    -0.135000000     3.871000000     1.606000000
H     0.132000000     3.911000000     0.687000000
H    -0.809000000     4.546000000     1.689000000
O     3.065000000     0.862000000     8.024000000
H     3.555000000     0.042000000     7.970000000
H     2.553000000     0.889000000     7.216000000
O    -1.477000000     2.502000000     7.961000000
H    -1.010000000     2.460000000     8.796000000
H    -1.042000000     1.851000000     7.411000000
O    -2.449000000     3.099000000     5.009000000
H    -1.877000000     2.833000000     5.729000000
H    -2.507000000     2.323000000     4.451000000
O    -6.261000000     4.430000000     4.627000000
H    -7.174000000     4.332000000     4.896000000
H    -5.828000000     3.643000000     4.957000000
O    -5.446000000     1.707000000     4.101000000
H    -4.831000000     2.046000000     3.449000000
H    -4.897000000     1.231000000     4.723000000
O     0.693000000     4.224000000     5.695000000
H     1.554000000     4.493000000     6.014000000
H     0.875000000     3.742000000     4.889000000
O    -3.816000000     0.070000000     5.740000000
H    -3.208000000    -0.555000000     6.135000000
H    -3.370000000     0.371000000     4.948000000
O    -2.833000000    -1.455000000     9.443000000
H    -2.843000000    -0.518000000     9.641000000
H    -2.772000000    -1.497000000     8.489000000
O    -3.904000000     2.787000000     8.792000000
H    -4.216000000     3.680000000     8.645000000
H    -2.998000000     2.796000000     8.483000000
O    -6.188000000     4.336000000     1.873000000
H    -5.334000000     3.905000000     1.853000000
H    -6.396000000     4.412000000     2.804000000
O    -4.471000000    -3.116000000     7.131000000
H    -3.886000000    -2.919000000     6.399000000
H    -4.369000000    -4.058000000     7.272000000
O    -1.867000000    -1.821000000     6.426000000
H    -1.748000000    -1.387000000     5.581000000
H    -1.169000000    -2.475000000     6.459000000
O    -3.624000000     5.487000000     6.652000000
H    -3.724000000     4.698000000     6.120000000
H    -2.696000000     5.500000000     6.889000000
O    -3.397000000     4.173000000     2.576000000
H    -3.092000000     5.073000000     2.468000000
H    -2.858000000     3.821000000     3.284000000
