215
-1447.63636
C    -1.474000000     2.373000000    -4.376000000
H    -1.772000000     1.367000000    -4.663000000
C    -0.228000000     2.561000000    -3.822000000
C     0.169000000     3.828000000    -3.448000000
H     1.152000000     3.953000000    -3.003000000
C     0.702000000     1.379000000    -3.691000000
O     0.565000000     0.422000000    -4.850000000
H     0.587000000     0.907000000    -2.704000000
O     2.101000000     1.845000000    -3.850000000
C     3.046000000     1.276000000    -2.996000000
C     3.478000000     2.053000000    -1.897000000
H     3.138000000     3.073000000    -1.742000000
C     4.460000000     1.507000000    -1.040000000
O     4.631000000     2.296000000     0.141000000
C     4.731000000     0.084000000    -1.099000000
C     5.547000000    -0.593000000    -0.064000000
H     6.152000000    -1.381000000    -0.517000000
C     4.655000000    -1.116000000     1.025000000
C     4.290000000    -2.439000000     0.954000000
H     4.613000000    -3.105000000     0.157000000
H     6.096000000     0.222000000     0.413000000
C     4.344000000    -0.601000000    -2.219000000
H     4.499000000    -1.676000000    -2.247000000
C     3.533000000    -0.032000000    -3.196000000
C     3.125000000    -0.851000000    -4.497000000
H     3.790000000    -1.683000000    -4.738000000
H     3.111000000    -0.354000000    -5.469000000
C     1.779000000    -1.508000000    -4.237000000
C     1.779000000    -2.762000000    -3.656000000
H     2.778000000    -3.134000000    -3.445000000
C     0.584000000    -0.850000000    -4.450000000
C    -0.662000000    -1.444000000    -4.192000000
H    -1.569000000    -0.865000000    -4.351000000
C    -0.642000000    -2.709000000    -3.595000000
O    -1.854000000    -3.252000000    -3.247000000
C    -2.250000000    -3.221000000    -1.853000000
C    -3.700000000    -2.751000000    -1.482000000
C    -4.298000000    -2.998000000    -0.210000000
H    -3.755000000    -3.588000000     0.524000000
C    -4.299000000    -1.772000000    -2.349000000
H    -3.787000000    -1.538000000    -3.280000000
O    -1.973000000    -4.548000000    -1.254000000
H    -1.524000000    -2.560000000    -1.356000000
C     0.597000000    -3.364000000    -3.389000000
C     0.557000000    -4.783000000    -2.713000000
H     1.521000000    -5.207000000    -3.004000000
H    -0.301000000    -5.342000000    -3.094000000
C     0.418000000    -4.591000000    -1.171000000
C     1.609000000    -4.516000000    -0.518000000
H     2.503000000    -4.382000000    -1.122000000
C    -0.794000000    -4.527000000    -0.516000000
C    -0.773000000    -4.429000000     0.857000000
H    -1.732000000    -4.495000000     1.366000000
C     0.406000000    -4.386000000     1.534000000
O     0.325000000    -4.014000000     2.856000000
C     0.551000000    -2.697000000     3.229000000
C    -0.423000000    -2.259000000     4.257000000
C    -1.596000000    -2.950000000     4.551000000
H    -1.617000000    -3.982000000     4.211000000
C    -0.276000000    -0.916000000     4.772000000
H     0.529000000    -0.283000000     4.409000000
O     1.907000000    -2.617000000     3.730000000
H     0.389000000    -2.072000000     2.339000000
C     1.624000000    -4.394000000     0.860000000
C     2.915000000    -4.379000000     1.717000000
H     3.749000000    -4.845000000     1.188000000
H     2.831000000    -4.856000000     2.696000000
C     3.403000000    -2.897000000     1.864000000
C     2.898000000    -2.134000000     2.872000000
C     3.331000000    -0.795000000     2.991000000
H     2.982000000    -0.263000000     3.873000000
C     4.205000000    -0.285000000     2.052000000
O     4.466000000     1.046000000     2.094000000
C     3.794000000     2.011000000     1.246000000
H     2.874000000     1.591000000     0.812000000
C     3.398000000     3.338000000     1.836000000
C     3.239000000     4.529000000     1.092000000
H     3.233000000     4.376000000     0.016000000
C     2.917000000     3.312000000     3.097000000
H     2.810000000     2.357000000     3.604000000
C     2.469000000     4.445000000     3.795000000
O     2.010000000     4.367000000     5.099000000
C     2.330000000     5.635000000     3.115000000
H     1.858000000     6.457000000     3.647000000
C     2.624000000     5.642000000     1.677000000
O     2.255000000     6.771000000     0.956000000
C     2.156000000     6.717000000    -0.441000000
C     0.974000000     6.319000000    -1.083000000
H     0.168000000     5.909000000    -0.479000000
C     3.189000000     7.227000000    -1.218000000
H     4.089000000     7.434000000    -0.645000000
C     3.104000000     7.291000000    -2.613000000
H     3.792000000     7.690000000    -3.354000000
C     1.872000000     7.015000000    -3.201000000
H     1.867000000     7.080000000    -4.286000000
C     0.815000000     6.435000000    -2.429000000
O    -0.438000000     6.147000000    -2.986000000
C    -0.652000000     4.937000000    -3.575000000
C    -1.925000000     4.699000000    -4.122000000
H    -2.549000000     5.582000000    -4.230000000
C    -2.348000000     3.445000000    -4.540000000
O    -3.602000000     3.306000000    -5.184000000
C    -4.295000000     2.097000000    -5.145000000
C    -4.617000000     1.387000000    -3.969000000
H    -4.232000000     1.920000000    -3.103000000
C    -4.738000000     1.628000000    -6.370000000
H    -4.489000000     2.237000000    -7.235000000
C    -5.469000000     0.423000000    -6.428000000
H    -5.929000000     0.097000000    -7.357000000
C    -5.852000000    -0.249000000    -5.210000000
H    -6.538000000    -1.092000000    -5.203000000
C    -5.446000000     0.270000000    -3.937000000
O    -5.958000000    -0.193000000    -2.714000000
C    -5.518000000    -1.179000000    -2.058000000
C    -6.149000000    -1.524000000    -0.838000000
H    -7.112000000    -1.046000000    -0.676000000
C    -5.551000000    -2.384000000     0.044000000
O    -6.110000000    -2.498000000     1.276000000
C    -5.644000000    -3.348000000     2.278000000
C    -4.938000000    -2.755000000     3.322000000
H    -4.647000000    -1.713000000     3.223000000
C    -5.946000000    -4.749000000     2.359000000
H    -6.488000000    -5.287000000     1.586000000
C    -5.510000000    -5.482000000     3.438000000
H    -5.628000000    -6.563000000     3.433000000
C    -4.819000000    -4.918000000     4.534000000
H    -4.516000000    -5.527000000     5.382000000
C    -4.490000000    -3.558000000     4.404000000
O    -3.845000000    -2.869000000     5.411000000
C    -2.596000000    -2.366000000     5.363000000
C    -2.355000000    -1.178000000     5.967000000
H    -3.141000000    -0.708000000     6.552000000
C    -1.243000000    -0.456000000     5.704000000
O    -1.059000000     0.807000000     6.241000000
C     0.139000000     1.421000000     6.350000000
C     1.185000000     0.863000000     7.105000000
H     1.029000000    -0.098000000     7.587000000
C     2.512000000     1.392000000     7.227000000
H     3.284000000     0.753000000     7.649000000
C     2.799000000     2.516000000     6.467000000
H     3.823000000     2.872000000     6.394000000
C     1.765000000     3.169000000     5.767000000
C     0.452000000     2.595000000     5.681000000
H    -0.253000000     3.007000000     4.965000000
C    -2.879000000     0.137000000     0.806000000
H    -3.787000000    -0.362000000     1.135000000
C    -1.633000000    -0.537000000     0.890000000
H    -1.620000000    -1.522000000     1.349000000
C    -0.532000000     0.008000000     0.225000000
H     0.421000000    -0.586000000     0.164000000
C    -0.586000000     1.268000000    -0.379000000
H     0.336000000     1.723000000    -0.732000000
C    -1.792000000     1.995000000    -0.365000000
H    -1.785000000     2.997000000    -0.787000000
C    -2.940000000     1.430000000     0.227000000
C    -4.200000000     2.270000000     0.357000000
O    -4.236000000     3.405000000    -0.108000000
O    -5.202000000     1.878000000     0.916000000
O    -3.634000000     8.222000000    -0.890000000
H    -3.400000000     7.409000000    -0.443000000
H    -4.475000000     8.472000000    -0.508000000
O    -6.374000000     5.242000000     1.926000000
H    -5.884000000     4.444000000     1.728000000
H    -6.450000000     5.692000000     1.085000000
O    -0.431000000     2.363000000     2.590000000
H    -0.530000000     1.914000000     1.750000000
H    -1.050000000     1.922000000     3.172000000
O    -3.062000000     5.673000000     0.531000000
H    -2.391000000     5.465000000     1.181000000
H    -3.599000000     4.882000000     0.480000000
O    -4.671000000     4.499000000    -2.387000000
H    -5.200000000     5.166000000    -1.949000000
H    -4.354000000     3.940000000    -1.678000000
O    -3.556000000     4.165000000     3.962000000
H    -4.161000000     4.902000000     4.050000000
H    -2.806000000     4.526000000     3.490000000
O    -7.048000000     4.080000000     4.513000000
H    -7.227000000     4.531000000     3.688000000
H    -6.394000000     3.418000000     4.287000000
O    -5.390000000     1.778000000     3.448000000
H    -4.706000000     2.417000000     3.652000000
H    -5.361000000     1.692000000     2.496000000
O    -7.851000000     0.906000000     1.323000000
H    -6.895000000     0.944000000     1.358000000
H    -8.096000000     0.349000000     2.062000000
O    -1.895000000     7.988000000     1.626000000
H    -0.959000000     7.934000000     1.430000000
H    -2.283000000     7.259000000     1.142000000
O    -6.943000000     0.992000000     5.443000000
H    -6.260000000     0.753000000     4.816000000
H    -6.852000000     1.939000000     5.547000000
O    -6.685000000     5.767000000    -1.028000000
H    -7.462000000     6.159000000    -1.426000000
H    -6.924000000     4.850000000    -0.889000000
O    -7.319000000     2.978000000    -0.598000000
H    -6.411000000     2.745000000    -0.404000000
H    -7.837000000     2.443000000     0.003000000
O    -6.364000000     4.265000000    -4.429000000
H    -6.893000000     3.635000000    -3.940000000
H    -5.613000000     4.439000000    -3.862000000
O    -1.256000000     4.947000000     2.707000000
H    -0.862000000     4.081000000     2.810000000
H    -0.991000000     5.426000000     3.493000000
O    -8.300000000     2.651000000    -3.248000000
H    -8.646000000     1.773000000    -3.406000000
H    -7.986000000     2.626000000    -2.344000000
O    -9.323000000     2.680000000     2.705000000
H    -8.800000000     2.017000000     2.254000000
H    -9.452000000     2.326000000     3.585000000
O    -5.656000000     8.033000000     2.337000000
H    -5.558000000     7.209000000     2.813000000
H    -4.946000000     8.585000000     2.666000000
O    -9.538000000    -0.698000000    -0.312000000
H    -9.211000000    -0.015000000     0.274000000
H    -9.539000000    -0.290000000    -1.178000000
