215
-1479.35435
C    -0.355000000     4.796000000    -0.177000000
H    -1.122000000     4.448000000    -0.865000000
C     0.963000000     4.460000000    -0.427000000
C     1.952000000     4.689000000     0.533000000
H     2.971000000     4.311000000     0.513000000
C     1.311000000     3.641000000    -1.628000000
O     0.456000000     4.008000000    -2.755000000
H     0.970000000     2.612000000    -1.443000000
O     2.743000000     3.621000000    -1.965000000
C     3.369000000     2.393000000    -2.286000000
C     4.004000000     1.810000000    -1.182000000
H     3.983000000     2.313000000    -0.218000000
C     4.517000000     0.505000000    -1.291000000
O     5.075000000    -0.017000000    -0.165000000
C     4.275000000    -0.227000000    -2.485000000
C     4.719000000    -1.696000000    -2.616000000
H     5.008000000    -1.929000000    -3.642000000
C     3.654000000    -2.648000000    -2.103000000
C     2.623000000    -3.103000000    -2.881000000
H     2.629000000    -2.873000000    -3.943000000
H     5.659000000    -1.938000000    -2.115000000
C     3.660000000     0.416000000    -3.601000000
H     3.511000000    -0.084000000    -4.554000000
C     3.155000000     1.726000000    -3.499000000
C     2.268000000     2.390000000    -4.560000000
H     2.487000000     2.043000000    -5.572000000
H     2.451000000     3.466000000    -4.596000000
C     0.757000000     2.110000000    -4.311000000
C     0.167000000     0.983000000    -4.960000000
H     0.759000000     0.277000000    -5.537000000
C    -0.003000000     3.028000000    -3.578000000
C    -1.376000000     2.757000000    -3.455000000
H    -1.952000000     3.465000000    -2.866000000
C    -1.948000000     1.552000000    -3.908000000
O    -3.247000000     1.312000000    -3.445000000
C    -3.501000000     0.351000000    -2.408000000
C    -4.592000000     0.816000000    -1.534000000
C    -5.365000000    -0.117000000    -0.835000000
H    -5.146000000    -1.175000000    -0.955000000
C    -4.726000000     2.195000000    -1.205000000
H    -4.136000000     2.976000000    -1.677000000
O    -3.857000000    -0.840000000    -3.064000000
H    -2.572000000     0.259000000    -1.826000000
C    -1.192000000     0.718000000    -4.785000000
C    -1.920000000    -0.523000000    -5.271000000
H    -1.490000000    -0.939000000    -6.185000000
H    -2.880000000    -0.340000000    -5.756000000
C    -1.863000000    -1.663000000    -4.269000000
C    -0.845000000    -2.607000000    -4.358000000
H    -0.083000000    -2.490000000    -5.125000000
C    -2.874000000    -1.763000000    -3.288000000
C    -2.774000000    -2.747000000    -2.299000000
H    -3.437000000    -2.679000000    -1.440000000
C    -1.674000000    -3.629000000    -2.293000000
O    -1.586000000    -4.515000000    -1.242000000
C    -0.683000000    -4.164000000    -0.201000000
C    -1.343000000    -4.335000000     1.206000000
C    -2.605000000    -3.904000000     1.486000000
H    -3.221000000    -3.485000000     0.694000000
C    -0.534000000    -4.689000000     2.240000000
H     0.544000000    -4.718000000     2.100000000
O     0.542000000    -4.948000000    -0.488000000
H    -0.397000000    -3.114000000    -0.357000000
C    -0.757000000    -3.604000000    -3.389000000
C     0.516000000    -4.424000000    -3.317000000
H     0.836000000    -4.638000000    -4.339000000
H     0.174000000    -5.408000000    -2.988000000
C     1.609000000    -3.863000000    -2.389000000
C     1.519000000    -4.188000000    -1.031000000
C     2.511000000    -3.655000000    -0.209000000
H     2.430000000    -3.720000000     0.873000000
C     3.555000000    -2.907000000    -0.736000000
O     4.444000000    -2.283000000     0.167000000
C     4.149000000    -0.892000000     0.603000000
H     3.110000000    -0.613000000     0.374000000
C     4.333000000    -0.643000000     2.139000000
C     4.835000000     0.591000000     2.591000000
H     5.081000000     1.417000000     1.929000000
C     3.788000000    -1.509000000     3.047000000
H     3.363000000    -2.421000000     2.635000000
C     3.753000000    -1.186000000     4.410000000
O     3.261000000    -2.021000000     5.416000000
C     4.363000000     0.010000000     4.886000000
H     4.285000000     0.190000000     5.955000000
C     4.871000000     0.914000000     3.947000000
O     5.328000000     2.154000000     4.401000000
C     5.048000000     3.335000000     3.857000000
C     3.812000000     3.885000000     3.506000000
H     2.898000000     3.330000000     3.704000000
C     6.150000000     4.187000000     3.716000000
H     7.151000000     3.830000000     3.947000000
C     6.051000000     5.488000000     3.267000000
H     6.958000000     6.062000000     3.097000000
C     4.811000000     6.009000000     3.015000000
H     4.765000000     7.055000000     2.721000000
C     3.670000000     5.223000000     2.973000000
O     2.411000000     5.717000000     2.769000000
C     1.601000000     5.406000000     1.685000000
C     0.311000000     5.923000000     1.789000000
H     0.022000000     6.598000000     2.591000000
C    -0.692000000     5.690000000     0.826000000
O    -1.961000000     6.206000000     1.095000000
C    -2.937000000     5.959000000     0.139000000
C    -3.980000000     5.102000000     0.505000000
H    -3.931000000     4.479000000     1.394000000
C    -2.873000000     6.510000000    -1.153000000
H    -2.035000000     7.088000000    -1.535000000
C    -3.937000000     6.219000000    -2.072000000
H    -3.808000000     6.553000000    -3.098000000
C    -5.023000000     5.407000000    -1.645000000
H    -5.914000000     5.327000000    -2.263000000
C    -5.058000000     4.864000000    -0.363000000
O    -5.973000000     3.926000000    -0.028000000
C    -5.770000000     2.610000000    -0.326000000
C    -6.611000000     1.630000000     0.270000000
H    -7.404000000     1.903000000     0.961000000
C    -6.354000000     0.267000000     0.045000000
O    -7.210000000    -0.751000000     0.550000000
C    -6.709000000    -1.975000000     0.817000000
C    -5.745000000    -2.175000000     1.814000000
H    -5.214000000    -1.349000000     2.282000000
C    -7.357000000    -3.108000000     0.299000000
H    -8.082000000    -3.044000000    -0.509000000
C    -7.001000000    -4.391000000     0.636000000
H    -7.385000000    -5.234000000     0.068000000
C    -6.025000000    -4.574000000     1.614000000
H    -5.571000000    -5.545000000     1.799000000
C    -5.413000000    -3.500000000     2.234000000
O    -4.412000000    -3.774000000     3.130000000
C    -3.107000000    -4.106000000     2.775000000
C    -2.363000000    -4.641000000     3.834000000
H    -2.667000000    -4.752000000     4.872000000
C    -1.012000000    -4.911000000     3.554000000
O    -0.183000000    -5.294000000     4.605000000
C     1.209000000    -5.011000000     4.646000000
C     2.182000000    -5.989000000     4.771000000
H     1.728000000    -6.969000000     4.653000000
C     3.481000000    -5.640000000     5.025000000
H     4.162000000    -6.476000000     5.159000000
C     3.875000000    -4.326000000     5.174000000
H     4.887000000    -4.053000000     5.464000000
C     2.882000000    -3.369000000     5.199000000
C     1.564000000    -3.720000000     4.939000000
H     0.799000000    -2.948000000     4.952000000
C    -1.123000000    -0.934000000     2.477000000
H    -1.310000000    -1.366000000     3.457000000
C    -0.100000000    -1.211000000     1.666000000
H     0.705000000    -1.874000000     1.975000000
C     0.061000000    -0.530000000     0.456000000
H     0.923000000    -0.762000000    -0.140000000
C    -0.878000000     0.390000000     0.042000000
H    -0.742000000     0.890000000    -0.914000000
C    -1.951000000     0.672000000     0.853000000
H    -2.665000000     1.376000000     0.433000000
C    -2.094000000     0.027000000     2.076000000
C    -3.287000000     0.401000000     2.864000000
O    -3.513000000     1.594000000     2.842000000
O    -3.640000000    -0.255000000     3.823000000
O    -3.700000000     1.160000000     6.149000000
H    -4.078000000     0.569000000     6.800000000
H    -3.933000000     0.769000000     5.307000000
O     0.297000000     2.133000000     7.475000000
H    -0.087000000     3.007000000     7.407000000
H    -0.388000000     1.601000000     7.881000000
O     0.278000000     0.726000000     5.243000000
H     0.038000000     1.058000000     4.378000000
H     0.364000000     1.510000000     5.785000000
O    -7.480000000     2.123000000     6.700000000
H    -6.906000000     2.056000000     7.463000000
H    -7.906000000     1.268000000     6.644000000
O    -5.451000000     2.926000000     3.878000000
H    -4.725000000     2.418000000     3.516000000
H    -5.428000000     2.741000000     4.817000000
O    -0.992000000     4.371000000     6.077000000
H    -1.224000000     4.403000000     5.148000000
H    -1.830000000     4.441000000     6.535000000
O    -7.751000000     4.376000000     2.930000000
H    -6.917000000     3.920000000     2.814000000
H    -8.163000000     3.936000000     3.674000000
O    -1.879000000     1.973000000     8.853000000
H    -2.313000000     1.122000000     8.796000000
H    -2.537000000     2.598000000     8.550000000
O    -3.658000000    -0.424000000     8.632000000
H    -3.983000000    -0.366000000     9.531000000
H    -2.996000000    -1.115000000     8.662000000
O    -4.089000000     5.568000000     3.730000000
H    -4.698000000     5.991000000     4.335000000
H    -4.516000000     4.743000000     3.497000000
O    -7.258000000    -3.675000000     4.817000000
H    -7.121000000    -2.843000000     5.269000000
H    -6.381000000    -4.050000000     4.733000000
O    -3.432000000    -2.217000000     5.641000000
H    -3.586000000    -1.457000000     5.079000000
H    -3.784000000    -2.956000000     5.145000000
O    -2.101000000     3.778000000     3.547000000
H    -2.603000000     2.991000000     3.337000000
H    -2.764000000     4.448000000     3.714000000
O    -3.565000000     3.832000000     6.923000000
H    -4.279000000     4.068000000     7.515000000
H    -3.784000000     2.951000000     6.621000000
O     0.205000000     2.729000000     2.682000000
H     0.075000000     1.996000000     2.081000000
H    -0.679000000     3.044000000     2.871000000
O    -6.206000000    -0.652000000     4.665000000
H    -5.343000000    -0.502000000     4.279000000
H    -6.679000000     0.168000000     4.522000000
O    -6.308000000    -2.358000000     7.830000000
H    -6.652000000    -1.651000000     7.284000000
H    -5.504000000    -2.001000000     8.206000000
O    -0.636000000    -1.184000000     7.005000000
H    -1.526000000    -0.961000000     6.733000000
H    -0.073000000    -0.736000000     6.373000000
O    -3.236000000    -3.426000000     8.092000000
H    -3.286000000    -2.927000000     7.276000000
H    -2.538000000    -4.064000000     7.939000000
