215
-1438.71974
C    -0.004000000     4.840000000    -0.164000000
H    -0.754000000     4.347000000    -0.777000000
C     1.365000000     4.494000000    -0.402000000
C     2.268000000     5.011000000     0.512000000
H     3.315000000     4.771000000     0.344000000
C     1.819000000     3.642000000    -1.537000000
O     1.127000000     3.978000000    -2.740000000
H     1.502000000     2.633000000    -1.235000000
O     3.222000000     3.673000000    -1.716000000
C     3.701000000     2.424000000    -1.892000000
C     4.243000000     1.758000000    -0.775000000
H     4.516000000     2.305000000     0.124000000
C     4.630000000     0.419000000    -0.827000000
O     4.986000000    -0.241000000     0.365000000
C     4.377000000    -0.273000000    -1.981000000
C     4.733000000    -1.738000000    -2.111000000
H     5.026000000    -1.981000000    -3.135000000
C     3.718000000    -2.740000000    -1.732000000
C     2.778000000    -3.263000000    -2.653000000
H     3.004000000    -3.212000000    -3.715000000
H     5.582000000    -1.950000000    -1.457000000
C     3.904000000     0.363000000    -3.067000000
H     3.896000000    -0.278000000    -3.945000000
C     3.604000000     1.714000000    -3.085000000
C     2.932000000     2.294000000    -4.325000000
H     3.379000000     1.876000000    -5.229000000
H     3.018000000     3.382000000    -4.378000000
C     1.367000000     2.058000000    -4.214000000
C     0.752000000     0.910000000    -4.804000000
H     1.434000000     0.260000000    -5.345000000
C     0.563000000     2.962000000    -3.504000000
C    -0.812000000     2.724000000    -3.354000000
H    -1.339000000     3.394000000    -2.679000000
C    -1.373000000     1.598000000    -3.917000000
O    -2.680000000     1.324000000    -3.656000000
C    -3.076000000     0.339000000    -2.712000000
C    -4.316000000     0.811000000    -2.020000000
C    -5.175000000    -0.017000000    -1.354000000
H    -4.927000000    -1.075000000    -1.378000000
C    -4.493000000     2.223000000    -1.803000000
H    -3.852000000     2.959000000    -2.282000000
O    -3.390000000    -0.919000000    -3.265000000
H    -2.325000000     0.301000000    -1.908000000
C    -0.629000000     0.693000000    -4.736000000
C    -1.281000000    -0.505000000    -5.330000000
H    -0.682000000    -0.778000000    -6.202000000
H    -2.222000000    -0.275000000    -5.834000000
C    -1.401000000    -1.720000000    -4.426000000
C    -0.348000000    -2.675000000    -4.328000000
H     0.519000000    -2.593000000    -4.978000000
C    -2.401000000    -1.838000000    -3.446000000
C    -2.610000000    -2.965000000    -2.703000000
H    -3.498000000    -2.995000000    -2.078000000
C    -1.598000000    -3.854000000    -2.644000000
O    -1.615000000    -4.654000000    -1.560000000
C    -0.830000000    -4.133000000    -0.410000000
C    -1.624000000    -4.215000000     0.893000000
C    -3.001000000    -4.160000000     0.954000000
H    -3.577000000    -4.077000000     0.036000000
C    -0.826000000    -4.208000000     2.088000000
H     0.259000000    -4.255000000     2.046000000
O     0.454000000    -4.909000000    -0.359000000
H    -0.542000000    -3.073000000    -0.481000000
C    -0.467000000    -3.766000000    -3.476000000
C     0.787000000    -4.644000000    -3.311000000
H     1.374000000    -4.634000000    -4.232000000
H     0.436000000    -5.591000000    -2.896000000
C     1.758000000    -4.103000000    -2.222000000
C     1.586000000    -4.304000000    -0.840000000
C     2.508000000    -3.757000000     0.019000000
H     2.420000000    -3.816000000     1.101000000
C     3.541000000    -2.978000000    -0.378000000
O     4.258000000    -2.377000000     0.727000000
C     3.938000000    -1.041000000     0.991000000
H     2.978000000    -0.816000000     0.505000000
C     3.822000000    -0.794000000     2.511000000
C     4.049000000     0.537000000     2.960000000
H     4.453000000     1.209000000     2.206000000
C     3.378000000    -1.722000000     3.431000000
H     3.123000000    -2.749000000     3.184000000
C     3.365000000    -1.418000000     4.779000000
O     3.055000000    -2.340000000     5.742000000
C     3.735000000    -0.162000000     5.250000000
H     3.957000000    -0.046000000     6.308000000
C     3.996000000     0.867000000     4.299000000
O     4.541000000     2.031000000     4.778000000
C     4.628000000     3.150000000     4.034000000
C     3.510000000     3.948000000     3.655000000
H     2.524000000     3.607000000     3.959000000
C     5.947000000     3.618000000     3.771000000
H     6.846000000     3.104000000     4.102000000
C     6.140000000     4.779000000     3.031000000
H     7.120000000     5.181000000     2.790000000
C     5.059000000     5.605000000     2.732000000
H     5.202000000     6.621000000     2.373000000
C     3.775000000     5.197000000     3.061000000
O     2.774000000     6.020000000     2.652000000
C     1.915000000     5.640000000     1.668000000
C     0.565000000     5.838000000     1.929000000
H     0.381000000     6.441000000     2.815000000
C    -0.471000000     5.404000000     1.055000000
O    -1.762000000     5.760000000     1.240000000
C    -2.685000000     5.801000000     0.224000000
C    -3.712000000     4.860000000     0.284000000
H    -3.918000000     4.155000000     1.085000000
C    -2.540000000     6.752000000    -0.812000000
H    -1.654000000     7.380000000    -0.749000000
C    -3.551000000     6.902000000    -1.739000000
H    -3.590000000     7.616000000    -2.558000000
C    -4.621000000     5.997000000    -1.693000000
H    -5.422000000     6.116000000    -2.418000000
C    -4.657000000     4.985000000    -0.721000000
O    -5.672000000     4.066000000    -0.720000000
C    -5.508000000     2.725000000    -1.025000000
C    -6.399000000     1.858000000    -0.406000000
H    -7.105000000     2.099000000     0.384000000
C    -6.241000000     0.479000000    -0.577000000
O    -7.096000000    -0.362000000     0.130000000
C    -6.969000000    -1.672000000     0.315000000
C    -6.009000000    -2.186000000     1.168000000
H    -5.257000000    -1.528000000     1.598000000
C    -7.914000000    -2.510000000    -0.214000000
H    -8.758000000    -2.090000000    -0.755000000
C    -7.768000000    -3.911000000     0.054000000
H    -8.524000000    -4.544000000    -0.406000000
C    -6.890000000    -4.358000000     0.977000000
H    -6.770000000    -5.412000000     1.216000000
C    -5.896000000    -3.549000000     1.458000000
O    -4.986000000    -4.008000000     2.304000000
C    -3.613000000    -4.076000000     2.167000000
C    -2.966000000    -4.134000000     3.328000000
H    -3.535000000    -4.078000000     4.252000000
C    -1.587000000    -4.258000000     3.313000000
O    -0.986000000    -4.381000000     4.521000000
C     0.328000000    -4.571000000     4.724000000
C     0.894000000    -5.837000000     4.999000000
H     0.377000000    -6.776000000     4.818000000
C     2.194000000    -5.924000000     5.520000000
H     2.546000000    -6.922000000     5.767000000
C     2.922000000    -4.800000000     5.814000000
H     3.943000000    -4.862000000     6.180000000
C     2.366000000    -3.521000000     5.439000000
C     1.104000000    -3.489000000     4.885000000
H     0.625000000    -2.514000000     4.855000000
C    -1.274000000    -0.632000000     2.323000000
H    -1.075000000    -1.443000000     3.019000000
C    -0.317000000    -0.481000000     1.358000000
H     0.525000000    -1.164000000     1.281000000
C    -0.352000000     0.574000000     0.434000000
H     0.408000000     0.678000000    -0.374000000
C    -1.405000000     1.445000000     0.592000000
H    -1.545000000     2.359000000     0.020000000
C    -2.417000000     1.288000000     1.551000000
H    -3.330000000     1.875000000     1.615000000
C    -2.313000000     0.256000000     2.457000000
C    -3.363000000     0.029000000     3.614000000
O    -4.372000000     0.748000000     3.577000000
O    -3.128000000    -0.814000000     4.438000000
O    -4.468000000     1.142000000     6.427000000
H    -3.716000000     0.610000000     6.689000000
H    -4.674000000     0.843000000     5.541000000
O    -9.103000000    -0.579000000     3.115000000
H    -9.982000000    -0.245000000     2.938000000
H    -9.189000000    -1.530000000     3.049000000
O     1.452000000     1.683000000     5.729000000
H     1.923000000     1.136000000     5.100000000
H     0.655000000     1.946000000     5.270000000
O    -7.498000000    -1.619000000     7.578000000
H    -7.670000000    -0.813000000     7.092000000
H    -7.177000000    -1.322000000     8.429000000
O    -6.941000000     1.753000000     7.458000000
H    -6.247000000     1.556000000     6.829000000
H    -7.752000000     1.571000000     6.983000000
O    -5.395000000     3.219000000     3.463000000
H    -5.249000000     2.301000000     3.690000000
H    -5.348000000     3.683000000     4.299000000
O    -8.075000000     3.484000000     2.819000000
H    -7.122000000     3.450000000     2.905000000
H    -8.384000000     2.702000000     3.275000000
O    -5.557000000     5.196000000     5.455000000
H    -4.922000000     5.886000000     5.646000000
H    -6.340000000     5.448000000     5.945000000
O    -7.296000000    -3.918000000     4.687000000
H    -8.178000000    -3.996000000     5.052000000
H    -7.132000000    -2.976000000     4.658000000
O    -1.384000000    -1.386000000     6.424000000
H    -1.876000000    -1.730000000     5.679000000
H    -1.940000000    -1.565000000     7.182000000
O    -2.469000000     3.530000000     4.561000000
H    -2.863000000     3.512000000     5.433000000
H    -3.144000000     3.171000000     3.985000000
O    -3.161000000    -1.418000000     8.579000000
H    -3.090000000    -2.149000000     9.192000000
H    -3.973000000    -1.584000000     8.101000000
O    -4.555000000     2.817000000     8.513000000
H    -5.512000000     2.831000000     8.549000000
H    -4.354000000     2.462000000     7.647000000
O    -8.486000000     1.291000000     5.428000000
H    -8.588000000     0.774000000     4.629000000
H    -9.253000000     1.071000000     5.956000000
O    -0.072000000     2.626000000     3.363000000
H    -0.404000000     2.022000000     2.700000000
H    -0.843000000     3.116000000     3.649000000
O    -6.617000000    -1.183000000     4.493000000
H    -5.965000000    -0.539000000     4.219000000
H    -7.422000000    -0.912000000     4.051000000
O    -4.631000000    -2.321000000     6.142000000
H    -4.071000000    -1.920000000     5.477000000
H    -5.512000000    -2.278000000     5.770000000
O     0.875000000    -0.469000000     7.456000000
H     0.033000000    -0.886000000     7.276000000
H     0.801000000     0.400000000     7.061000000
O    -3.505000000    -4.831000000     7.319000000
H    -3.579000000    -3.912000000     7.063000000
H    -2.605000000    -4.920000000     7.632000000
