215
-1459.30031
C    -1.374000000     4.295000000    -0.993000000
H    -2.165000000     3.874000000    -1.610000000
C     0.004000000     4.104000000    -1.197000000
C     0.882000000     4.729000000    -0.315000000
H     1.966000000     4.671000000    -0.372000000
C     0.551000000     3.285000000    -2.308000000
O    -0.343000000     3.334000000    -3.394000000
H     0.514000000     2.251000000    -1.933000000
O     1.962000000     3.581000000    -2.630000000
C     2.815000000     2.494000000    -2.778000000
C     3.753000000     2.278000000    -1.777000000
H     3.807000000     2.989000000    -0.956000000
C     4.419000000     1.084000000    -1.659000000
O     5.067000000     0.858000000    -0.505000000
C     4.268000000     0.075000000    -2.648000000
C     4.991000000    -1.267000000    -2.524000000
H     5.231000000    -1.614000000    -3.532000000
C     4.221000000    -2.280000000    -1.720000000
C     3.337000000    -3.138000000    -2.339000000
H     3.277000000    -3.021000000    -3.417000000
H     5.981000000    -1.260000000    -2.063000000
C     3.421000000     0.329000000    -3.733000000
H     3.411000000    -0.428000000    -4.513000000
C     2.777000000     1.549000000    -3.832000000
C     1.663000000     1.745000000    -4.978000000
H     1.989000000     1.201000000    -5.867000000
H     1.719000000     2.802000000    -5.249000000
C     0.281000000     1.235000000    -4.734000000
C    -0.143000000    -0.037000000    -5.101000000
H     0.520000000    -0.611000000    -5.744000000
C    -0.661000000     2.064000000    -3.951000000
C    -1.904000000     1.527000000    -3.654000000
H    -2.569000000     2.134000000    -3.045000000
C    -2.294000000     0.280000000    -4.072000000
O    -3.487000000    -0.263000000    -3.692000000
C    -3.472000000    -0.941000000    -2.468000000
C    -4.688000000    -0.508000000    -1.593000000
C    -5.049000000    -1.217000000    -0.461000000
H    -4.587000000    -2.195000000    -0.354000000
C    -5.256000000     0.787000000    -1.749000000
H    -4.997000000     1.448000000    -2.573000000
O    -3.531000000    -2.360000000    -2.714000000
H    -2.557000000    -0.607000000    -1.957000000
C    -1.375000000    -0.515000000    -4.722000000
C    -1.675000000    -1.976000000    -5.031000000
H    -1.110000000    -2.432000000    -5.847000000
H    -2.720000000    -2.008000000    -5.345000000
C    -1.447000000    -2.929000000    -3.799000000
C    -0.158000000    -3.403000000    -3.498000000
H     0.705000000    -3.233000000    -4.138000000
C    -2.364000000    -3.042000000    -2.751000000
C    -2.103000000    -3.774000000    -1.606000000
H    -2.924000000    -3.799000000    -0.894000000
C    -0.896000000    -4.458000000    -1.427000000
O    -0.669000000    -5.106000000    -0.254000000
C     0.179000000    -4.261000000     0.656000000
C    -0.298000000    -4.420000000     2.048000000
C    -1.666000000    -4.470000000     2.316000000
H    -2.377000000    -4.670000000     1.519000000
C     0.681000000    -4.372000000     3.030000000
H     1.753000000    -4.360000000     2.854000000
O     1.602000000    -4.538000000     0.539000000
H     0.038000000    -3.192000000     0.436000000
C     0.113000000    -4.217000000    -2.391000000
C     1.457000000    -4.847000000    -2.341000000
H     1.871000000    -4.964000000    -3.344000000
H     1.389000000    -5.845000000    -1.903000000
C     2.434000000    -3.962000000    -1.645000000
C     2.449000000    -3.836000000    -0.228000000
C     3.371000000    -3.034000000     0.398000000
H     3.353000000    -2.885000000     1.475000000
C     4.227000000    -2.233000000    -0.319000000
O     4.850000000    -1.289000000     0.440000000
C     4.320000000     0.062000000     0.453000000
H     3.312000000     0.035000000     0.015000000
C     4.292000000     0.758000000     1.799000000
C     4.746000000     2.087000000     1.997000000
H     5.075000000     2.718000000     1.175000000
C     3.650000000     0.151000000     2.911000000
H     3.307000000    -0.872000000     2.781000000
C     3.589000000     0.748000000     4.145000000
O     2.987000000     0.087000000     5.237000000
C     4.080000000     2.025000000     4.270000000
H     3.931000000     2.492000000     5.240000000
C     4.599000000     2.704000000     3.187000000
O     4.968000000     4.020000000     3.372000000
C     4.485000000     4.993000000     2.545000000
C     3.156000000     5.047000000     2.332000000
H     2.519000000     4.433000000     2.964000000
C     5.408000000     5.808000000     1.900000000
H     6.433000000     5.824000000     2.261000000
C     4.931000000     6.796000000     1.073000000
H     5.584000000     7.528000000     0.605000000
C     3.581000000     6.980000000     0.852000000
H     3.289000000     7.816000000     0.222000000
C     2.698000000     6.087000000     1.464000000
O     1.336000000     6.316000000     1.413000000
C     0.434000000     5.552000000     0.758000000
C    -0.920000000     5.646000000     1.009000000
H    -1.305000000     6.255000000     1.823000000
C    -1.825000000     5.101000000     0.116000000
O    -3.129000000     5.253000000     0.384000000
C    -4.122000000     4.990000000    -0.500000000
C    -4.867000000     3.844000000    -0.401000000
H    -4.586000000     3.090000000     0.330000000
C    -4.355000000     5.806000000    -1.619000000
H    -3.740000000     6.685000000    -1.793000000
C    -5.465000000     5.569000000    -2.431000000
H    -5.693000000     6.226000000    -3.266000000
C    -6.247000000     4.438000000    -2.301000000
H    -7.033000000     4.159000000    -2.997000000
C    -5.907000000     3.588000000    -1.223000000
O    -6.738000000     2.513000000    -0.951000000
C    -6.192000000     1.274000000    -0.819000000
C    -6.498000000     0.564000000     0.312000000
H    -7.321000000     0.987000000     0.883000000
C    -5.924000000    -0.672000000     0.492000000
O    -6.148000000    -1.333000000     1.635000000
C    -5.861000000    -2.706000000     1.844000000
C    -4.770000000    -2.987000000     2.645000000
H    -4.244000000    -2.182000000     3.152000000
C    -6.511000000    -3.717000000     1.139000000
H    -7.386000000    -3.446000000     0.555000000
C    -6.198000000    -5.071000000     1.404000000
H    -6.751000000    -5.837000000     0.865000000
C    -5.184000000    -5.377000000     2.300000000
H    -4.824000000    -6.375000000     2.534000000
C    -4.391000000    -4.375000000     2.865000000
O    -3.479000000    -4.762000000     3.893000000
C    -2.129000000    -4.537000000     3.621000000
C    -1.195000000    -4.588000000     4.647000000
H    -1.574000000    -4.639000000     5.665000000
C     0.196000000    -4.381000000     4.369000000
O     1.070000000    -4.369000000     5.445000000
C     2.012000000    -3.431000000     5.699000000
C     3.066000000    -3.813000000     6.561000000
H     3.239000000    -4.861000000     6.792000000
C     4.092000000    -2.967000000     6.893000000
H     4.792000000    -3.224000000     7.684000000
C     4.056000000    -1.707000000     6.288000000
H     4.733000000    -0.911000000     6.586000000
C     3.073000000    -1.259000000     5.395000000
C     1.964000000    -2.119000000     5.225000000
H     1.068000000    -1.764000000     4.723000000
C    -0.042000000    -0.718000000     1.807000000
H     0.551000000    -1.199000000     2.581000000
C     0.424000000    -0.632000000     0.476000000
H     1.366000000    -1.088000000     0.184000000
C    -0.370000000     0.120000000    -0.390000000
H    -0.143000000     0.061000000    -1.441000000
C    -1.584000000     0.684000000    -0.047000000
H    -2.221000000     1.199000000    -0.761000000
C    -2.101000000     0.598000000     1.210000000
H    -3.041000000     1.015000000     1.562000000
C    -1.348000000    -0.106000000     2.142000000
C    -1.827000000    -0.266000000     3.580000000
O    -2.963000000     0.113000000     3.890000000
O    -1.130000000    -0.697000000     4.484000000
O     0.415000000     2.125000000     4.595000000
H     0.548000000     1.200000000     4.800000000
H     0.342000000     2.151000000     3.641000000
O     0.461000000    -3.107000000     8.631000000
H    -0.107000000    -3.875000000     8.571000000
H     1.281000000    -3.444000000     8.992000000
O     0.416000000     4.957000000     4.941000000
H     0.810000000     4.965000000     5.814000000
H     0.217000000     4.036000000     4.776000000
O     0.584000000     2.182000000     1.882000000
H     0.196000000     2.912000000     1.400000000
H     0.211000000     1.401000000     1.474000000
O    -1.017000000     1.968000000     8.215000000
H    -0.943000000     1.142000000     7.738000000
H    -0.112000000     2.256000000     8.338000000
O    -7.273000000     2.242000000     6.767000000
H    -7.615000000     2.852000000     7.421000000
H    -6.439000000     2.626000000     6.495000000
O    -7.123000000    -4.280000000     4.965000000
H    -6.395000000    -3.699000000     5.186000000
H    -7.776000000    -3.704000000     4.568000000
O    -4.558000000     2.037000000     6.808000000
H    -4.359000000     2.537000000     7.600000000
H    -3.959000000     1.292000000     6.839000000
O    -8.148000000     0.035000000     5.083000000
H    -7.965000000     0.669000000     5.777000000
H    -7.368000000     0.056000000     4.528000000
O     1.505000000    -0.174000000     9.050000000
H     0.730000000    -0.635000000     8.727000000
H     1.749000000    -0.647000000     9.846000000
O    -5.646000000     1.061000000     4.294000000
H    -5.042000000     1.117000000     5.034000000
H    -5.314000000     0.333000000     3.768000000
O     1.833000000     2.360000000     7.270000000
H     1.998000000     3.298000000     7.175000000
H     1.622000000     2.063000000     6.385000000
O    -3.148000000    -0.311000000     6.625000000
H    -2.260000000    -0.380000000     6.976000000
H    -3.050000000    -0.488000000     5.690000000
O    -7.322000000     2.818000000     2.830000000
H    -6.887000000     3.663000000     2.943000000
H    -6.772000000     2.199000000     3.308000000
O    -5.800000000    -1.835000000     5.637000000
H    -6.261000000    -1.368000000     6.334000000
H    -4.875000000    -1.759000000     5.868000000
O    -0.483000000    -0.782000000     7.019000000
H    -0.113000000    -1.656000000     7.139000000
H    -0.361000000    -0.596000000     6.088000000
O    -4.323000000    -1.058000000     9.152000000
H    -5.196000000    -0.882000000     8.801000000
H    -3.733000000    -0.901000000     8.415000000
O    -3.312000000     5.446000000     3.416000000
H    -4.058000000     5.670000000     2.859000000
H    -3.314000000     4.489000000     3.445000000
O    -2.746000000     2.722000000     3.686000000
H    -3.023000000     1.805000000     3.702000000
H    -1.984000000     2.751000000     4.264000000
