215
-1462.70428
C    -1.490000000     4.489000000    -3.441000000
H    -2.288000000     3.964000000    -3.960000000
C    -0.251000000     4.039000000    -3.266000000
C     0.723000000     4.701000000    -2.516000000
H     1.671000000     4.211000000    -2.311000000
C     0.030000000     2.611000000    -3.697000000
O    -0.860000000     2.044000000    -4.604000000
H    -0.053000000     2.053000000    -2.753000000
O     1.342000000     2.421000000    -4.253000000
C     2.070000000     1.341000000    -4.018000000
C     3.019000000     1.432000000    -3.013000000
H     3.225000000     2.385000000    -2.534000000
C     3.755000000     0.276000000    -2.619000000
O     4.641000000     0.372000000    -1.574000000
C     3.495000000    -0.960000000    -3.293000000
C     4.151000000    -2.219000000    -2.857000000
H     4.051000000    -2.916000000    -3.691000000
C     3.546000000    -2.849000000    -1.586000000
C     2.534000000    -3.777000000    -1.729000000
H     2.230000000    -4.077000000    -2.728000000
H     5.237000000    -2.129000000    -2.789000000
C     2.599000000    -0.973000000    -4.331000000
H     2.442000000    -1.910000000    -4.860000000
C     1.867000000     0.152000000    -4.683000000
C     0.720000000    -0.034000000    -5.710000000
H     1.019000000    -0.924000000    -6.267000000
H     0.637000000     0.881000000    -6.300000000
C    -0.554000000    -0.319000000    -4.909000000
C    -0.902000000    -1.656000000    -4.644000000
H    -0.281000000    -2.529000000    -4.828000000
C    -1.229000000     0.745000000    -4.367000000
C    -2.314000000     0.595000000    -3.529000000
H    -2.859000000     1.434000000    -3.103000000
C    -2.689000000    -0.730000000    -3.287000000
O    -3.856000000    -0.949000000    -2.584000000
C    -3.640000000    -1.261000000    -1.193000000
C    -4.406000000    -0.249000000    -0.296000000
C    -4.803000000    -0.781000000     0.901000000
H    -4.689000000    -1.835000000     1.138000000
C    -4.593000000     1.106000000    -0.526000000
H    -4.199000000     1.514000000    -1.453000000
O    -3.970000000    -2.644000000    -0.945000000
H    -2.564000000    -1.086000000    -1.047000000
C    -2.021000000    -1.856000000    -3.850000000
C    -2.511000000    -3.250000000    -3.609000000
H    -2.204000000    -4.003000000    -4.338000000
H    -3.600000000    -3.284000000    -3.687000000
C    -2.144000000    -3.711000000    -2.172000000
C    -0.990000000    -4.465000000    -2.126000000
H    -0.316000000    -4.736000000    -2.934000000
C    -2.913000000    -3.487000000    -0.998000000
C    -2.461000000    -3.959000000     0.236000000
H    -2.994000000    -3.648000000     1.131000000
C    -1.210000000    -4.557000000     0.273000000
O    -0.612000000    -4.767000000     1.470000000
C     0.368000000    -3.786000000     1.963000000
C     0.210000000    -3.403000000     3.507000000
C    -1.066000000    -3.549000000     4.121000000
H    -1.851000000    -4.120000000     3.633000000
C     1.231000000    -2.785000000     4.246000000
H     2.249000000    -2.734000000     3.870000000
O     1.596000000    -4.345000000     1.799000000
H     0.214000000    -2.867000000     1.379000000
C    -0.490000000    -4.883000000    -0.902000000
C     0.830000000    -5.492000000    -0.770000000
H     1.184000000    -6.068000000    -1.627000000
H     0.799000000    -6.233000000     0.031000000
C     1.937000000    -4.443000000    -0.618000000
C     2.342000000    -3.998000000     0.671000000
C     3.281000000    -3.010000000     0.791000000
H     3.547000000    -2.589000000     1.757000000
C     3.794000000    -2.331000000    -0.282000000
O     4.678000000    -1.360000000    -0.042000000
C     4.035000000    -0.053000000    -0.304000000
H     2.941000000    -0.124000000    -0.404000000
C     4.282000000     0.856000000     0.868000000
C     3.998000000     2.230000000     0.764000000
H     3.479000000     2.692000000    -0.072000000
C     4.658000000     0.283000000     2.115000000
H     4.706000000    -0.799000000     2.202000000
C     5.182000000     1.113000000     3.063000000
O     5.561000000     0.624000000     4.323000000
C     4.974000000     2.489000000     3.017000000
H     5.221000000     3.097000000     3.883000000
C     4.299000000     2.981000000     1.928000000
O     4.200000000     4.309000000     1.892000000
C     3.941000000     5.133000000     0.798000000
C     2.662000000     5.373000000     0.381000000
H     1.830000000     5.318000000     1.078000000
C     5.049000000     5.402000000    -0.046000000
H     6.060000000     5.152000000     0.264000000
C     4.827000000     6.068000000    -1.235000000
H     5.661000000     6.301000000    -1.893000000
C     3.564000000     6.466000000    -1.590000000
H     3.393000000     6.967000000    -2.539000000
C     2.481000000     6.149000000    -0.752000000
O     1.267000000     6.595000000    -1.142000000
C     0.391000000     5.958000000    -2.002000000
C    -0.884000000     6.533000000    -2.208000000
H    -1.062000000     7.502000000    -1.748000000
C    -1.857000000     5.688000000    -2.844000000
O    -3.189000000     6.053000000    -2.994000000
C    -4.307000000     5.256000000    -2.645000000
C    -4.342000000     4.619000000    -1.446000000
H    -3.541000000     4.756000000    -0.724000000
C    -5.331000000     5.013000000    -3.568000000
H    -5.299000000     5.461000000    -4.558000000
C    -6.405000000     4.135000000    -3.179000000
H    -7.188000000     3.945000000    -3.908000000
C    -6.457000000     3.565000000    -1.924000000
H    -7.378000000     3.045000000    -1.672000000
C    -5.408000000     3.756000000    -1.070000000
O    -5.400000000     3.299000000     0.221000000
C    -5.180000000     1.939000000     0.447000000
C    -5.534000000     1.424000000     1.649000000
H    -5.965000000     2.033000000     2.439000000
C    -5.302000000     0.081000000     1.914000000
O    -5.576000000    -0.342000000     3.225000000
C    -5.203000000    -1.504000000     3.716000000
C    -3.940000000    -1.738000000     4.316000000
H    -3.178000000    -0.963000000     4.294000000
C    -6.154000000    -2.550000000     3.725000000
H    -7.197000000    -2.410000000     3.452000000
C    -5.941000000    -3.700000000     4.491000000
H    -6.728000000    -4.431000000     4.659000000
C    -4.754000000    -3.875000000     5.189000000
H    -4.563000000    -4.751000000     5.803000000
C    -3.779000000    -2.866000000     5.110000000
O    -2.565000000    -2.972000000     5.856000000
C    -1.286000000    -2.995000000     5.371000000
C    -0.288000000    -2.478000000     6.078000000
H    -0.493000000    -2.210000000     7.112000000
C     1.009000000    -2.372000000     5.516000000
O     1.876000000    -1.603000000     6.282000000
C     3.190000000    -1.543000000     6.001000000
C     4.052000000    -2.632000000     6.218000000
H     3.686000000    -3.524000000     6.721000000
C     5.403000000    -2.551000000     5.870000000
H     5.973000000    -3.436000000     6.141000000
C     5.823000000    -1.508000000     5.082000000
H     6.829000000    -1.529000000     4.670000000
C     5.022000000    -0.383000000     4.972000000
C     3.705000000    -0.429000000     5.370000000
H     3.011000000     0.385000000     5.176000000
C    -1.483000000     1.000000000     1.352000000
H    -2.351000000     1.080000000     2.001000000
C    -1.153000000    -0.254000000     0.820000000
H    -1.668000000    -1.153000000     1.150000000
C    -0.208000000    -0.375000000    -0.208000000
H     0.102000000    -1.260000000    -0.752000000
C     0.467000000     0.774000000    -0.599000000
H     1.224000000     0.606000000    -1.361000000
C     0.222000000     2.003000000    -0.067000000
H     0.861000000     2.826000000    -0.378000000
C    -0.824000000     2.189000000     0.897000000
C    -1.143000000     3.507000000     1.520000000
O    -0.479000000     4.529000000     1.247000000
O    -1.949000000     3.570000000     2.399000000
O    -3.007000000     8.484000000    -0.208000000
H    -3.964000000     8.464000000    -0.222000000
H    -2.762000000     7.763000000     0.372000000
O    -1.486000000     4.253000000     5.077000000
H    -0.547000000     4.421000000     4.989000000
H    -1.767000000     4.000000000     4.198000000
O     1.139000000     0.771000000     2.797000000
H     1.233000000    -0.099000000     2.410000000
H     0.443000000     1.186000000     2.287000000
O     0.284000000     8.167000000     1.319000000
H     0.466000000     7.268000000     1.048000000
H     0.211000000     8.655000000     0.498000000
O    -3.494000000     0.781000000     6.943000000
H    -2.664000000     0.849000000     7.416000000
H    -3.314000000     1.172000000     6.087000000
O     0.784000000     5.447000000     3.479000000
H     0.179000000     5.130000000     2.808000000
H     1.346000000     4.696000000     3.668000000
O    -2.406000000     6.664000000     1.641000000
H    -1.679000000     6.067000000     1.466000000
H    -3.183000000     6.104000000     1.636000000
O    -2.767000000     1.646000000     4.466000000
H    -1.893000000     1.355000000     4.726000000
H    -2.608000000     2.385000000     3.878000000
O     1.536000000     3.061000000     4.482000000
H     1.135000000     2.302000000     4.058000000
H     1.924000000     2.710000000     5.284000000
O    -1.847000000     9.022000000     3.061000000
H    -1.115000000     9.385000000     2.563000000
H    -2.076000000     8.217000000     2.597000000
O    -4.526000000     4.726000000     2.137000000
H    -4.905000000     4.110000000     1.509000000
H    -3.692000000     4.329000000     2.389000000
O    -5.787000000     4.168000000     5.122000000
H    -6.520000000     3.679000000     4.747000000
H    -5.374000000     4.592000000     4.370000000
O    -3.654000000     4.356000000     6.887000000
H    -2.994000000     3.986000000     6.301000000
H    -4.481000000     4.244000000     6.418000000
O    -6.794000000     6.022000000     1.417000000
H    -7.079000000     6.038000000     2.331000000
H    -5.856000000     5.836000000     1.461000000
O     0.122000000     7.424000000     5.249000000
H    -0.690000000     7.786000000     4.894000000
H     0.274000000     6.630000000     4.736000000
O     1.373000000     4.661000000     7.732000000
H     0.463000000     4.880000000     7.529000000
H     1.751000000     5.480000000     8.052000000
O     2.653000000     7.903000000     3.426000000
H     1.923000000     7.288000000     3.491000000
H     2.601000000     8.244000000     2.533000000
O    -1.227000000     5.491000000     8.078000000
H    -1.606000000     5.425000000     7.201000000
H    -1.864000000     5.057000000     8.646000000
O    -0.489000000     1.107000000     5.569000000
H    -0.137000000     0.221000000     5.651000000
H    -0.109000000     1.585000000     6.307000000
