215
-1449.50999
C    -1.852000000     3.863000000    -3.638000000
H    -2.523000000     3.166000000    -4.135000000
C    -0.485000000     3.561000000    -3.452000000
C     0.364000000     4.473000000    -2.939000000
H     1.428000000     4.252000000    -2.923000000
C     0.034000000     2.133000000    -3.745000000
O    -0.886000000     1.490000000    -4.650000000
H    -0.115000000     1.516000000    -2.847000000
O     1.442000000     2.049000000    -4.234000000
C     2.244000000     1.081000000    -3.775000000
C     3.229000000     1.338000000    -2.843000000
H     3.298000000     2.346000000    -2.442000000
C     4.028000000     0.330000000    -2.337000000
O     4.896000000     0.563000000    -1.338000000
C     3.798000000    -0.958000000    -2.733000000
C     4.662000000    -2.076000000    -2.139000000
H     4.753000000    -2.827000000    -2.925000000
C     3.989000000    -2.595000000    -0.825000000
C     3.104000000    -3.663000000    -0.959000000
H     3.142000000    -4.204000000    -1.900000000
H     5.698000000    -1.759000000    -2.004000000
C     2.858000000    -1.187000000    -3.753000000
H     2.733000000    -2.227000000    -4.041000000
C     2.125000000    -0.169000000    -4.317000000
C     1.137000000    -0.559000000    -5.373000000
H     1.548000000    -1.343000000    -6.012000000
H     1.143000000     0.340000000    -5.993000000
C    -0.214000000    -0.850000000    -4.807000000
C    -0.432000000    -2.169000000    -4.414000000
H     0.361000000    -2.911000000    -4.441000000
C    -1.186000000     0.109000000    -4.502000000
C    -2.326000000    -0.155000000    -3.725000000
H    -3.083000000     0.612000000    -3.586000000
C    -2.596000000    -1.480000000    -3.455000000
O    -3.753000000    -1.765000000    -2.804000000
C    -3.557000000    -1.849000000    -1.386000000
C    -4.503000000    -0.950000000    -0.528000000
C    -4.964000000    -1.479000000     0.679000000
H    -4.821000000    -2.528000000     0.924000000
C    -4.765000000     0.361000000    -0.812000000
H    -4.562000000     0.779000000    -1.795000000
O    -3.569000000    -3.251000000    -0.959000000
H    -2.558000000    -1.442000000    -1.173000000
C    -1.660000000    -2.540000000    -3.835000000
C    -1.952000000    -3.931000000    -3.336000000
H    -1.422000000    -4.641000000    -3.974000000
H    -2.980000000    -4.216000000    -3.569000000
C    -1.565000000    -4.227000000    -1.925000000
C    -0.359000000    -4.843000000    -1.662000000
H     0.293000000    -5.120000000    -2.486000000
C    -2.419000000    -3.988000000    -0.853000000
C    -1.998000000    -4.144000000     0.453000000
H    -2.633000000    -3.779000000     1.257000000
C    -0.788000000    -4.647000000     0.793000000
O    -0.368000000    -4.537000000     2.105000000
C     0.454000000    -3.418000000     2.372000000
C     0.069000000    -2.861000000     3.792000000
C    -1.189000000    -3.145000000     4.283000000
H    -1.849000000    -3.671000000     3.597000000
C     0.945000000    -2.052000000     4.485000000
H     1.833000000    -1.689000000     3.974000000
O     1.800000000    -3.768000000     2.459000000
H     0.401000000    -2.630000000     1.606000000
C     0.066000000    -4.981000000    -0.305000000
C     1.515000000    -5.456000000    -0.035000000
H     1.877000000    -6.065000000    -0.865000000
H     1.605000000    -6.066000000     0.867000000
C     2.375000000    -4.212000000     0.144000000
C     2.558000000    -3.511000000     1.368000000
C     3.475000000    -2.460000000     1.507000000
H     3.635000000    -1.914000000     2.433000000
C     4.247000000    -2.009000000     0.420000000
O     5.007000000    -0.924000000     0.576000000
C     4.407000000     0.255000000     0.004000000
H     3.308000000     0.210000000     0.009000000
C     4.648000000     1.473000000     0.910000000
C     4.560000000     2.769000000     0.443000000
H     4.361000000     2.978000000    -0.605000000
C     4.796000000     1.326000000     2.266000000
H     4.813000000     0.304000000     2.635000000
C     4.744000000     2.394000000     3.140000000
O     4.695000000     2.110000000     4.532000000
C     4.589000000     3.664000000     2.679000000
H     4.698000000     4.448000000     3.425000000
C     4.514000000     3.868000000     1.332000000
O     4.535000000     5.228000000     0.856000000
C     4.059000000     5.617000000    -0.383000000
C     2.731000000     5.759000000    -0.511000000
H     2.045000000     5.429000000     0.264000000
C     4.945000000     5.964000000    -1.378000000
H     6.023000000     5.869000000    -1.278000000
C     4.362000000     6.563000000    -2.527000000
H     5.048000000     6.813000000    -3.332000000
C     2.964000000     6.681000000    -2.701000000
H     2.565000000     7.139000000    -3.602000000
C     2.156000000     6.232000000    -1.674000000
O     0.782000000     6.501000000    -1.714000000
C    -0.061000000     5.710000000    -2.456000000
C    -1.425000000     6.092000000    -2.585000000
H    -1.748000000     6.941000000    -1.988000000
C    -2.300000000     5.198000000    -3.284000000
O    -3.666000000     5.494000000    -3.287000000
C    -4.713000000     4.665000000    -2.898000000
C    -4.581000000     3.950000000    -1.784000000
H    -3.686000000     4.163000000    -1.206000000
C    -5.701000000     4.411000000    -3.805000000
H    -5.665000000     4.946000000    -4.751000000
C    -6.599000000     3.423000000    -3.500000000
H    -7.422000000     3.168000000    -4.162000000
C    -6.556000000     2.723000000    -2.263000000
H    -7.305000000     2.009000000    -1.931000000
C    -5.480000000     2.995000000    -1.402000000
O    -5.462000000     2.522000000    -0.132000000
C    -5.287000000     1.179000000     0.165000000
C    -5.861000000     0.616000000     1.322000000
H    -6.275000000     1.318000000     2.041000000
C    -5.683000000    -0.737000000     1.609000000
O    -6.091000000    -1.198000000     2.795000000
C    -5.492000000    -2.202000000     3.532000000
C    -4.313000000    -1.969000000     4.264000000
H    -3.732000000    -1.084000000     4.020000000
C    -6.310000000    -3.323000000     3.877000000
H    -7.223000000    -3.558000000     3.336000000
C    -5.955000000    -4.166000000     4.967000000
H    -6.561000000    -5.048000000     5.159000000
C    -4.724000000    -4.005000000     5.558000000
H    -4.319000000    -4.593000000     6.378000000
C    -3.970000000    -2.864000000     5.240000000
O    -2.854000000    -2.716000000     5.980000000
C    -1.586000000    -2.553000000     5.491000000
C    -0.674000000    -1.807000000     6.263000000
H    -0.921000000    -1.384000000     7.233000000
C     0.508000000    -1.475000000     5.679000000
O     1.416000000    -0.689000000     6.438000000
C     2.682000000    -0.437000000     6.023000000
C     3.668000000    -1.428000000     6.299000000
H     3.431000000    -2.438000000     6.623000000
C     4.940000000    -1.211000000     5.859000000
H     5.594000000    -2.078000000     5.894000000
C     5.312000000    -0.064000000     5.251000000
H     6.294000000     0.044000000     4.796000000
C     4.357000000     0.955000000     5.127000000
C     3.089000000     0.781000000     5.520000000
H     2.370000000     1.579000000     5.352000000
C    -2.001000000     0.885000000     1.373000000
H    -2.975000000     0.862000000     1.854000000
C    -1.482000000    -0.259000000     0.846000000
H    -2.067000000    -1.160000000     1.016000000
C    -0.362000000    -0.197000000     0.054000000
H    -0.012000000    -1.093000000    -0.398000000
C     0.270000000     1.018000000    -0.218000000
H     1.215000000     1.030000000    -0.755000000
C    -0.281000000     2.194000000     0.267000000
H     0.108000000     3.186000000     0.049000000
C    -1.408000000     2.158000000     1.096000000
C    -2.034000000     3.400000000     1.607000000
O    -1.551000000     4.482000000     1.221000000
O    -2.830000000     3.358000000     2.560000000
O    -2.563000000     8.949000000     1.208000000
H    -3.072000000     9.564000000     0.680000000
H    -2.726000000     8.096000000     0.804000000
O    -2.522000000     5.629000000     3.933000000
H    -1.621000000     5.796000000     4.208000000
H    -2.480000000     4.794000000     3.466000000
O     1.562000000     0.431000000     2.341000000
H     1.359000000     0.344000000     3.273000000
H     0.727000000     0.278000000     1.899000000
O    -1.472000000     9.325000000     3.979000000
H    -1.828000000     9.235000000     3.095000000
H    -1.960000000     8.687000000     4.500000000
O    -4.962000000     0.148000000     6.926000000
H    -4.329000000     0.057000000     7.639000000
H    -4.471000000    -0.087000000     6.139000000
O    -4.082000000     7.876000000     3.439000000
H    -3.525000000     7.098000000     3.424000000
H    -3.928000000     8.297000000     2.593000000
O     0.621000000     5.631000000     2.304000000
H    -0.170000000     5.359000000     1.840000000
H     1.077000000     4.813000000     2.500000000
O    -3.111000000     6.401000000     0.459000000
H    -2.337000000     5.841000000     0.507000000
H    -3.779000000     5.928000000     0.955000000
O    -3.342000000     1.520000000     4.181000000
H    -2.975000000     2.060000000     3.481000000
H    -4.276000000     1.731000000     4.182000000
O     1.652000000     3.352000000     3.099000000
H     1.634000000     2.624000000     2.477000000
H     2.304000000     3.094000000     3.750000000
O     1.313000000     7.884000000     3.824000000
H     0.587000000     8.452000000     3.567000000
H     1.132000000     7.052000000     3.388000000
O    -5.669000000     4.240000000     2.014000000
H    -5.813000000     3.570000000     1.346000000
H    -4.769000000     4.097000000     2.307000000
O    -6.338000000     3.042000000     4.522000000
H    -7.017000000     2.574000000     4.036000000
H    -5.964000000     3.651000000     3.886000000
O    -4.356000000     4.359000000     6.050000000
H    -4.039000000     4.478000000     5.155000000
H    -5.086000000     3.745000000     5.965000000
O    -7.781000000     6.487000000     0.531000000
H    -8.326000000     6.189000000     1.259000000
H    -6.889000000     6.259000000     0.790000000
O    -0.122000000     5.306000000     5.498000000
H     0.777000000     5.575000000     5.310000000
H    -0.133000000     4.366000000     5.317000000
O    -4.170000000     8.552000000    -2.774000000
H    -4.424000000     9.105000000    -2.036000000
H    -4.249000000     7.658000000    -2.442000000
O    -2.006000000     5.171000000     7.217000000
H    -1.392000000     5.309000000     6.496000000
H    -2.836000000     4.964000000     6.787000000
O    -1.462000000     1.535000000     6.279000000
H    -2.027000000     1.492000000     5.507000000
H    -1.685000000     0.753000000     6.783000000
