215
-1439.47084
C    -1.764000000     4.716000000    -1.852000000
H    -2.399000000     4.397000000    -2.675000000
C    -0.459000000     4.333000000    -1.843000000
C     0.389000000     4.962000000    -0.826000000
H     1.447000000     4.716000000    -0.771000000
C     0.168000000     3.265000000    -2.801000000
O    -0.741000000     3.179000000    -3.925000000
H     0.210000000     2.244000000    -2.394000000
O     1.394000000     3.602000000    -3.361000000
C     2.251000000     2.521000000    -3.323000000
C     3.055000000     2.358000000    -2.197000000
H     3.026000000     3.103000000    -1.406000000
C     3.913000000     1.228000000    -2.011000000
O     4.612000000     1.065000000    -0.823000000
C     3.886000000     0.300000000    -3.053000000
C     4.775000000    -1.020000000    -2.958000000
H     4.920000000    -1.430000000    -3.959000000
C     4.128000000    -2.134000000    -1.989000000
C     3.242000000    -3.123000000    -2.462000000
H     3.006000000    -3.186000000    -3.522000000
H     5.762000000    -0.752000000    -2.575000000
C     3.028000000     0.398000000    -4.150000000
H     2.995000000    -0.305000000    -4.979000000
C     2.186000000     1.527000000    -4.297000000
C     1.284000000     1.669000000    -5.406000000
H     1.709000000     1.147000000    -6.266000000
H     1.279000000     2.720000000    -5.702000000
C    -0.143000000     1.184000000    -5.013000000
C    -0.469000000    -0.182000000    -5.118000000
H     0.227000000    -0.802000000    -5.677000000
C    -1.083000000     2.013000000    -4.390000000
C    -2.290000000     1.520000000    -3.960000000
H    -2.968000000     2.129000000    -3.367000000
C    -2.591000000     0.128000000    -4.082000000
O    -3.753000000    -0.273000000    -3.472000000
C    -3.612000000    -1.010000000    -2.220000000
C    -4.688000000    -0.591000000    -1.204000000
C    -5.310000000    -1.527000000    -0.394000000
H    -5.063000000    -2.570000000    -0.574000000
C    -5.018000000     0.777000000    -1.042000000
H    -4.440000000     1.583000000    -1.487000000
O    -3.630000000    -2.401000000    -2.527000000
H    -2.651000000    -0.759000000    -1.745000000
C    -1.678000000    -0.770000000    -4.635000000
C    -1.849000000    -2.274000000    -4.785000000
H    -1.472000000    -2.806000000    -5.661000000
H    -2.920000000    -2.440000000    -4.917000000
C    -1.504000000    -2.971000000    -3.511000000
C    -0.184000000    -3.401000000    -3.329000000
H     0.492000000    -3.301000000    -4.175000000
C    -2.412000000    -3.050000000    -2.461000000
C    -2.135000000    -3.707000000    -1.239000000
H    -2.894000000    -3.830000000    -0.471000000
C    -0.781000000    -4.144000000    -1.105000000
O    -0.464000000    -4.736000000     0.083000000
C     0.571000000    -3.933000000     0.814000000
C     0.238000000    -3.842000000     2.302000000
C    -1.051000000    -3.629000000     2.680000000
H    -1.794000000    -3.619000000     1.886000000
C     1.208000000    -3.981000000     3.313000000
H     2.244000000    -4.216000000     3.082000000
O     1.938000000    -4.461000000     0.675000000
H     0.526000000    -2.886000000     0.480000000
C     0.145000000    -4.137000000    -2.168000000
C     1.499000000    -4.890000000    -2.092000000
H     1.740000000    -5.251000000    -3.094000000
H     1.323000000    -5.787000000    -1.496000000
C     2.566000000    -3.959000000    -1.614000000
C     2.764000000    -3.818000000    -0.227000000
C     3.725000000    -2.961000000     0.229000000
H     3.881000000    -2.876000000     1.301000000
C     4.318000000    -2.074000000    -0.616000000
O     5.069000000    -1.088000000     0.071000000
C     4.339000000     0.115000000     0.207000000
H     3.291000000    -0.172000000     0.035000000
C     4.390000000     0.659000000     1.657000000
C     4.011000000     2.032000000     1.920000000
H     3.666000000     2.634000000     1.083000000
C     4.846000000    -0.112000000     2.748000000
H     5.177000000    -1.125000000     2.536000000
C     4.778000000     0.399000000     4.020000000
O     5.275000000    -0.389000000     5.012000000
C     4.345000000     1.734000000     4.275000000
H     4.333000000     2.064000000     5.311000000
C     4.043000000     2.544000000     3.221000000
O     3.439000000     3.788000000     3.471000000
C     3.347000000     4.800000000     2.580000000
C     2.088000000     5.224000000     2.226000000
H     1.226000000     5.010000000     2.853000000
C     4.440000000     5.394000000     1.984000000
H     5.435000000     5.100000000     2.310000000
C     4.237000000     6.496000000     1.106000000
H     5.107000000     7.054000000     0.772000000
C     2.948000000     6.860000000     0.770000000
H     2.777000000     7.667000000     0.062000000
C     1.875000000     6.180000000     1.283000000
O     0.559000000     6.554000000     0.978000000
C    -0.202000000     5.932000000     0.006000000
C    -1.518000000     6.286000000    -0.069000000
H    -1.946000000     7.058000000     0.564000000
C    -2.298000000     5.717000000    -1.065000000
O    -3.518000000     6.179000000    -1.317000000
C    -4.626000000     5.298000000    -1.295000000
C    -4.900000000     4.472000000    -0.229000000
H    -4.213000000     4.384000000     0.610000000
C    -5.448000000     5.348000000    -2.374000000
H    -5.325000000     6.078000000    -3.169000000
C    -6.533000000     4.503000000    -2.466000000
H    -7.239000000     4.584000000    -3.288000000
C    -6.813000000     3.617000000    -1.414000000
H    -7.617000000     2.903000000    -1.571000000
C    -5.924000000     3.487000000    -0.407000000
O    -5.962000000     2.453000000     0.472000000
C    -5.833000000     1.193000000     0.061000000
C    -6.384000000     0.273000000     0.896000000
H    -6.999000000     0.556000000     1.746000000
C    -6.010000000    -1.084000000     0.754000000
O    -6.489000000    -1.943000000     1.741000000
C    -5.660000000    -2.881000000     2.367000000
C    -4.363000000    -2.601000000     2.818000000
H    -3.787000000    -1.717000000     2.559000000
C    -6.336000000    -4.018000000     2.761000000
H    -7.354000000    -4.185000000     2.420000000
C    -5.660000000    -4.965000000     3.604000000
H    -6.073000000    -5.919000000     3.920000000
C    -4.398000000    -4.748000000     4.098000000
H    -3.816000000    -5.449000000     4.690000000
C    -3.799000000    -3.538000000     3.710000000
O    -2.686000000    -3.206000000     4.471000000
C    -1.389000000    -3.452000000     4.020000000
C    -0.419000000    -3.592000000     4.966000000
H    -0.771000000    -3.564000000     5.994000000
C     0.874000000    -3.775000000     4.627000000
O     1.831000000    -3.761000000     5.639000000
C     3.163000000    -3.402000000     5.496000000
C     4.100000000    -4.327000000     5.908000000
H     3.804000000    -5.347000000     6.141000000
C     5.430000000    -4.007000000     5.802000000
H     6.159000000    -4.813000000     5.812000000
C     5.856000000    -2.677000000     5.557000000
H     6.911000000    -2.421000000     5.620000000
C     4.894000000    -1.706000000     5.200000000
C     3.537000000    -2.131000000     5.045000000
H     2.792000000    -1.474000000     4.604000000
C    -2.417000000     1.025000000     1.500000000
H    -3.492000000     0.982000000     1.655000000
C    -1.762000000    -0.059000000     0.852000000
H    -2.321000000    -0.853000000     0.363000000
C    -0.396000000     0.001000000     0.603000000
H     0.039000000    -0.795000000     0.011000000
C     0.332000000     1.072000000     1.100000000
H     1.414000000     1.048000000     0.999000000
C    -0.293000000     2.097000000     1.866000000
H     0.251000000     2.910000000     2.340000000
C    -1.689000000     2.009000000     2.094000000
C    -2.360000000     3.052000000     2.883000000
O    -1.771000000     3.777000000     3.695000000
O    -3.573000000     2.974000000     3.028000000
O    -4.317000000    -1.066000000     6.050000000
H    -4.718000000    -0.811000000     5.219000000
H    -3.386000000    -0.875000000     5.934000000
O     0.039000000     3.029000000     5.297000000
H    -0.721000000     3.150000000     4.728000000
H     0.501000000     3.866000000     5.261000000
O     1.121000000     0.290000000     4.067000000
H     0.594000000     1.085000000     4.149000000
H     1.075000000     0.066000000     3.138000000
O    -4.421000000     3.244000000     5.639000000
H    -4.040000000     3.196000000     4.762000000
H    -4.782000000     2.371000000     5.792000000
O     1.386000000     5.813000000     5.256000000
H     1.256000000     6.736000000     5.037000000
H     2.333000000     5.685000000     5.197000000
O    -8.883000000     3.850000000     2.213000000
H    -8.903000000     3.942000000     1.261000000
H    -7.953000000     3.773000000     2.427000000
O    -7.802000000     3.280000000     6.047000000
H    -6.973000000     2.821000000     6.183000000
H    -7.857000000     3.399000000     5.098000000
O    -3.712000000     5.994000000     2.722000000
H    -3.536000000     5.072000000     2.911000000
H    -2.920000000     6.303000000     2.283000000
O    -1.042000000     0.254000000     6.069000000
H    -0.237000000    -0.250000000     5.949000000
H    -0.975000000     0.967000000     5.435000000
O    -0.930000000     6.912000000     3.439000000
H    -1.471000000     6.771000000     4.216000000
H    -0.178000000     6.332000000     3.562000000
O    -5.229000000     9.080000000     2.879000000
H    -5.136000000     8.129000000     2.933000000
H    -4.444000000     9.372000000     2.415000000
O    -2.553000000     5.211000000     5.725000000
H    -3.341000000     4.672000000     5.660000000
H    -1.974000000     4.871000000     5.043000000
O    -1.583000000     0.969000000     8.935000000
H    -2.275000000     1.526000000     8.578000000
H    -1.376000000     0.360000000     8.225000000
O    -1.352000000     5.237000000     8.264000000
H    -1.633000000     4.635000000     7.574000000
H    -1.514000000     6.108000000     7.902000000
O    -6.693000000     6.365000000     3.649000000
H    -6.319000000     5.634000000     3.157000000
H    -6.122000000     6.456000000     4.412000000
O    -6.229000000     3.208000000     3.100000000
H    -5.288000000     3.302000000     3.248000000
H    -6.295000000     2.683000000     2.303000000
O    -5.460000000     4.926000000     7.905000000
H    -5.048000000     4.307000000     7.302000000
H    -5.420000000     5.767000000     7.449000000
O    -4.797000000     7.079000000     6.156000000
H    -3.896000000     6.811000000     6.337000000
H    -4.758000000     8.034000000     6.111000000
O     2.450000000     1.394000000     7.122000000
H     2.108000000     1.807000000     6.329000000
H     2.207000000     0.472000000     7.037000000
