215
-1452.14323
C    -1.682000000     4.284000000    -1.874000000
H    -2.393000000     3.650000000    -2.398000000
C    -0.314000000     4.085000000    -2.087000000
C     0.668000000     4.729000000    -1.240000000
H     1.731000000     4.503000000    -1.277000000
C     0.215000000     2.922000000    -2.980000000
O    -0.685000000     2.766000000    -4.078000000
H     0.227000000     2.020000000    -2.350000000
O     1.543000000     3.071000000    -3.473000000
C     2.295000000     1.984000000    -3.338000000
C     3.188000000     1.952000000    -2.346000000
H     3.273000000     2.760000000    -1.624000000
C     4.082000000     0.948000000    -2.158000000
O     4.774000000     1.031000000    -0.975000000
C     3.994000000    -0.238000000    -2.938000000
C     4.798000000    -1.498000000    -2.661000000
H     5.021000000    -2.111000000    -3.537000000
C     3.997000000    -2.360000000    -1.708000000
C     3.186000000    -3.420000000    -2.152000000
H     3.111000000    -3.525000000    -3.231000000
H     5.674000000    -1.232000000    -2.065000000
C     3.070000000    -0.182000000    -4.014000000
H     2.778000000    -1.035000000    -4.621000000
C     2.280000000     0.950000000    -4.264000000
C     1.290000000     0.996000000    -5.345000000
H     1.620000000     0.307000000    -6.125000000
H     1.298000000     2.004000000    -5.764000000
C    -0.082000000     0.527000000    -4.832000000
C    -0.491000000    -0.804000000    -4.984000000
H     0.210000000    -1.552000000    -5.345000000
C    -1.021000000     1.435000000    -4.285000000
C    -2.214000000     0.982000000    -3.791000000
H    -2.883000000     1.672000000    -3.284000000
C    -2.564000000    -0.317000000    -3.980000000
O    -3.729000000    -0.680000000    -3.392000000
C    -3.609000000    -1.218000000    -2.099000000
C    -4.631000000    -0.606000000    -1.112000000
C    -4.891000000    -1.273000000     0.155000000
H    -4.409000000    -2.232000000     0.324000000
C    -5.151000000     0.680000000    -1.244000000
H    -4.917000000     1.301000000    -2.105000000
O    -3.767000000    -2.640000000    -2.176000000
H    -2.565000000    -0.999000000    -1.832000000
C    -1.708000000    -1.279000000    -4.555000000
C    -2.052000000    -2.726000000    -4.605000000
H    -1.507000000    -3.291000000    -5.365000000
H    -3.138000000    -2.757000000    -4.712000000
C    -1.720000000    -3.343000000    -3.282000000
C    -0.555000000    -4.036000000    -3.196000000
H     0.144000000    -4.111000000    -4.025000000
C    -2.545000000    -3.329000000    -2.146000000
C    -2.126000000    -3.739000000    -0.905000000
H    -2.859000000    -3.701000000    -0.103000000
C    -0.877000000    -4.375000000    -0.786000000
O    -0.511000000    -4.602000000     0.472000000
C     0.440000000    -3.792000000     1.177000000
C     0.095000000    -3.603000000     2.660000000
C    -1.211000000    -3.438000000     3.108000000
H    -2.007000000    -3.326000000     2.377000000
C     1.106000000    -3.654000000     3.644000000
H     2.169000000    -3.712000000     3.425000000
O     1.705000000    -4.411000000     1.054000000
H     0.497000000    -2.827000000     0.654000000
C    -0.053000000    -4.466000000    -1.921000000
C     1.333000000    -5.088000000    -1.855000000
H     1.540000000    -5.600000000    -2.797000000
H     1.271000000    -5.929000000    -1.162000000
C     2.418000000    -4.162000000    -1.251000000
C     2.531000000    -3.837000000     0.085000000
C     3.386000000    -2.795000000     0.459000000
H     3.459000000    -2.428000000     1.480000000
C     4.125000000    -2.115000000    -0.367000000
O     4.828000000    -1.089000000     0.103000000
C     4.217000000     0.202000000     0.091000000
H     3.158000000     0.155000000    -0.204000000
C     4.473000000     0.909000000     1.419000000
C     4.763000000     2.315000000     1.415000000
H     5.130000000     2.748000000     0.487000000
C     4.171000000     0.330000000     2.682000000
H     3.855000000    -0.709000000     2.649000000
C     4.287000000     1.084000000     3.849000000
O     4.231000000     0.514000000     5.132000000
C     4.502000000     2.435000000     3.804000000
H     4.635000000     2.950000000     4.752000000
C     4.711000000     3.091000000     2.592000000
O     4.926000000     4.450000000     2.566000000
C     4.357000000     5.278000000     1.665000000
C     2.975000000     5.455000000     1.694000000
H     2.460000000     4.879000000     2.459000000
C     5.120000000     5.940000000     0.709000000
H     6.178000000     5.725000000     0.583000000
C     4.480000000     6.666000000    -0.316000000
H     4.995000000     7.243000000    -1.079000000
C     3.078000000     6.781000000    -0.313000000
H     2.568000000     7.227000000    -1.163000000
C     2.364000000     6.126000000     0.677000000
O     1.020000000     6.118000000     0.678000000
C     0.153000000     5.560000000    -0.221000000
C    -1.193000000     5.875000000    -0.202000000
H    -1.459000000     6.637000000     0.526000000
C    -2.098000000     5.189000000    -0.993000000
O    -3.346000000     5.772000000    -0.982000000
C    -4.554000000     5.154000000    -1.389000000
C    -5.032000000     4.036000000    -0.692000000
H    -4.626000000     3.571000000     0.203000000
C    -5.169000000     5.549000000    -2.512000000
H    -4.682000000     6.322000000    -3.101000000
C    -6.362000000     4.967000000    -2.939000000
H    -6.934000000     5.368000000    -3.771000000
C    -6.964000000     3.951000000    -2.231000000
H    -7.909000000     3.470000000    -2.470000000
C    -6.237000000     3.468000000    -1.167000000
O    -6.775000000     2.390000000    -0.542000000
C    -6.225000000     1.145000000    -0.416000000
C    -6.596000000     0.334000000     0.692000000
H    -7.224000000     0.772000000     1.463000000
C    -5.921000000    -0.837000000     1.045000000
O    -6.362000000    -1.599000000     2.091000000
C    -5.626000000    -2.629000000     2.646000000
C    -4.527000000    -2.363000000     3.433000000
H    -4.060000000    -1.382000000     3.467000000
C    -6.009000000    -3.934000000     2.416000000
H    -6.929000000    -3.993000000     1.840000000
C    -5.534000000    -4.989000000     3.220000000
H    -5.921000000    -5.990000000     3.046000000
C    -4.415000000    -4.807000000     4.015000000
H    -4.021000000    -5.617000000     4.624000000
C    -3.921000000    -3.481000000     4.132000000
O    -2.767000000    -3.298000000     4.990000000
C    -1.505000000    -3.314000000     4.427000000
C    -0.528000000    -3.377000000     5.390000000
H    -0.877000000    -3.387000000     6.419000000
C     0.780000000    -3.599000000     5.004000000
O     1.772000000    -3.625000000     5.978000000
C     2.884000000    -2.827000000     6.040000000
C     4.005000000    -3.310000000     6.715000000
H     3.870000000    -4.158000000     7.382000000
C     5.200000000    -2.535000000     6.817000000
H     6.078000000    -2.949000000     7.306000000
C     5.214000000    -1.346000000     6.210000000
H     6.063000000    -0.695000000     6.407000000
C     4.132000000    -0.824000000     5.557000000
C     2.942000000    -1.566000000     5.399000000
H     2.116000000    -1.114000000     4.856000000
C    -1.816000000     0.283000000     1.039000000
H    -2.761000000    -0.145000000     1.364000000
C    -0.853000000    -0.531000000     0.388000000
H    -1.109000000    -1.500000000    -0.033000000
C     0.398000000    -0.032000000     0.162000000
H     1.113000000    -0.623000000    -0.442000000
C     0.658000000     1.317000000     0.463000000
H     1.630000000     1.737000000     0.220000000
C    -0.235000000     2.132000000     1.165000000
H     0.071000000     3.116000000     1.509000000
C    -1.517000000     1.650000000     1.398000000
C    -2.469000000     2.554000000     2.159000000
O    -1.952000000     3.350000000     2.956000000
O    -3.672000000     2.380000000     2.150000000
O    -3.451000000    -0.368000000     6.451000000
H    -3.947000000    -1.185000000     6.497000000
H    -3.361000000    -0.092000000     7.363000000
O     0.677000000     3.388000000     4.233000000
H    -0.194000000     3.267000000     3.855000000
H     0.969000000     4.235000000     3.895000000
O    -6.034000000     8.174000000     2.161000000
H    -5.547000000     7.352000000     2.105000000
H    -5.437000000     8.776000000     2.607000000
O     0.370000000     0.662000000     3.729000000
H     0.568000000     1.597000000     3.681000000
H     0.093000000     0.430000000     2.842000000
O    -3.097000000     2.014000000     5.199000000
H    -2.957000000     2.373000000     4.323000000
H    -3.164000000     1.069000000     5.063000000
O    -0.094000000     7.053000000     3.860000000
H    -0.783000000     7.637000000     4.176000000
H    -0.384000000     6.791000000     2.986000000
O    -2.311000000     8.071000000     4.835000000
H    -2.378000000     7.123000000     4.720000000
H    -3.219000000     8.371000000     4.886000000
O    -8.342000000     5.742000000     3.595000000
H    -7.554000000     5.564000000     4.108000000
H    -8.295000000     5.129000000     2.862000000
O    -5.783000000     1.164000000     6.441000000
H    -6.191000000     0.843000000     7.246000000
H    -4.964000000     0.673000000     6.375000000
O    -7.606000000     1.087000000     3.996000000
H    -7.513000000     0.956000000     4.940000000
H    -6.794000000     1.520000000     3.733000000
O    -3.984000000     6.383000000     2.203000000
H    -3.907000000     5.760000000     1.481000000
H    -3.863000000     5.852000000     2.991000000
O    -0.792000000    -0.244000000     6.128000000
H    -1.684000000    -0.444000000     5.846000000
H    -0.311000000    -0.094000000     5.314000000
O    -3.060000000     5.220000000     4.464000000
H    -2.696000000     5.078000000     5.338000000
H    -2.706000000     4.504000000     3.937000000
O    -3.033000000     8.919000000     0.927000000
H    -3.285000000     8.017000000     1.126000000
H    -2.133000000     8.992000000     1.246000000
O    -2.218000000     3.968000000     6.868000000
H    -2.659000000     3.291000000     6.353000000
H    -1.354000000     3.602000000     7.054000000
O    -6.009000000     5.287000000     5.052000000
H    -6.035000000     4.468000000     4.559000000
H    -5.109000000     5.348000000     5.370000000
O    -5.977000000     3.378000000     3.143000000
H    -5.158000000     2.934000000     2.923000000
H    -6.487000000     3.353000000     2.333000000
O    -3.954000000     5.777000000     7.977000000
H    -3.476000000     5.005000000     7.675000000
H    -3.521000000     6.021000000     8.796000000
O     0.004000000     2.553000000     6.803000000
H     0.040000000     1.624000000     6.573000000
H     0.488000000     2.991000000     6.103000000
