215
-1461.27974
C    -1.072000000     4.317000000    -2.041000000
H    -1.858000000     3.690000000    -2.454000000
C     0.282000000     4.047000000    -2.325000000
C     1.257000000     4.814000000    -1.693000000
H     2.290000000     4.509000000    -1.843000000
C     0.612000000     2.840000000    -3.197000000
O    -0.304000000     2.578000000    -4.316000000
H     0.628000000     1.942000000    -2.561000000
O     1.970000000     2.855000000    -3.704000000
C     2.730000000     1.686000000    -3.497000000
C     3.442000000     1.612000000    -2.313000000
H     3.417000000     2.463000000    -1.637000000
C     4.051000000     0.398000000    -1.988000000
O     4.804000000     0.367000000    -0.811000000
C     3.886000000    -0.703000000    -2.801000000
C     4.501000000    -2.044000000    -2.408000000
H     4.657000000    -2.681000000    -3.281000000
C     3.537000000    -2.788000000    -1.437000000
C     2.533000000    -3.744000000    -1.821000000
H     2.281000000    -3.908000000    -2.865000000
H     5.511000000    -1.967000000    -2.000000000
C     3.082000000    -0.660000000    -3.953000000
H     2.863000000    -1.570000000    -4.506000000
C     2.489000000     0.553000000    -4.363000000
C     1.433000000     0.541000000    -5.517000000
H     1.662000000    -0.187000000    -6.299000000
H     1.419000000     1.425000000    -6.157000000
C     0.053000000     0.283000000    -4.954000000
C    -0.397000000    -0.985000000    -4.960000000
H     0.182000000    -1.840000000    -5.297000000
C    -0.776000000     1.358000000    -4.504000000
C    -2.065000000     1.098000000    -3.981000000
H    -2.731000000     1.918000000    -3.723000000
C    -2.526000000    -0.219000000    -4.002000000
O    -3.676000000    -0.310000000    -3.349000000
C    -3.657000000    -0.881000000    -2.000000000
C    -4.667000000    -0.144000000    -1.167000000
C    -5.094000000    -0.740000000     0.016000000
H    -4.690000000    -1.691000000     0.356000000
C    -5.164000000     1.148000000    -1.518000000
H    -4.769000000     1.545000000    -2.449000000
O    -3.923000000    -2.328000000    -2.042000000
H    -2.629000000    -0.713000000    -1.649000000
C    -1.700000000    -1.295000000    -4.430000000
C    -2.185000000    -2.774000000    -4.398000000
H    -1.691000000    -3.457000000    -5.092000000
H    -3.259000000    -2.684000000    -4.573000000
C    -1.891000000    -3.343000000    -3.007000000
C    -0.721000000    -4.072000000    -2.707000000
H    -0.008000000    -4.101000000    -3.527000000
C    -2.787000000    -3.153000000    -1.900000000
C    -2.420000000    -3.665000000    -0.644000000
H    -3.150000000    -3.430000000     0.126000000
C    -1.277000000    -4.373000000    -0.392000000
O    -0.990000000    -4.775000000     0.912000000
C     0.053000000    -4.076000000     1.763000000
C    -0.429000000    -3.995000000     3.161000000
C    -1.708000000    -3.428000000     3.342000000
H    -2.441000000    -3.514000000     2.543000000
C     0.497000000    -3.855000000     4.197000000
H     1.549000000    -4.099000000     4.078000000
O     1.366000000    -4.727000000     1.526000000
H     0.245000000    -3.028000000     1.490000000
C    -0.433000000    -4.586000000    -1.456000000
C     0.841000000    -5.421000000    -1.235000000
H     1.072000000    -5.915000000    -2.181000000
H     0.747000000    -6.222000000    -0.499000000
C     1.901000000    -4.492000000    -0.796000000
C     2.135000000    -4.202000000     0.542000000
C     3.040000000    -3.192000000     0.947000000
H     2.990000000    -3.066000000     2.025000000
C     3.699000000    -2.504000000    -0.037000000
O     4.619000000    -1.588000000     0.402000000
C     4.134000000    -0.239000000     0.294000000
H     3.041000000    -0.262000000     0.172000000
C     4.346000000     0.593000000     1.616000000
C     4.470000000     2.011000000     1.537000000
H     4.459000000     2.542000000     0.589000000
C     4.284000000     0.019000000     2.901000000
H     4.091000000    -1.045000000     3.013000000
C     4.266000000     0.783000000     4.020000000
O     4.356000000     0.171000000     5.285000000
C     4.579000000     2.147000000     3.952000000
H     4.701000000     2.680000000     4.891000000
C     4.595000000     2.755000000     2.720000000
O     4.765000000     4.120000000     2.763000000
C     4.582000000     4.982000000     1.679000000
C     3.337000000     5.373000000     1.315000000
H     2.521000000     4.832000000     1.787000000
C     5.704000000     5.322000000     0.971000000
H     6.614000000     5.056000000     1.503000000
C     5.586000000     6.149000000    -0.122000000
H     6.466000000     6.402000000    -0.709000000
C     4.302000000     6.475000000    -0.585000000
H     4.129000000     7.124000000    -1.439000000
C     3.140000000     6.098000000     0.140000000
O     1.888000000     6.563000000    -0.263000000
C     0.905000000     5.861000000    -0.852000000
C    -0.448000000     6.180000000    -0.676000000
H    -0.701000000     7.036000000    -0.056000000
C    -1.440000000     5.421000000    -1.268000000
O    -2.698000000     5.744000000    -0.886000000
C    -3.781000000     5.301000000    -1.636000000
C    -4.590000000     4.352000000    -0.991000000
H    -4.380000000     4.019000000     0.022000000
C    -4.026000000     5.858000000    -2.924000000
H    -3.441000000     6.656000000    -3.373000000
C    -5.282000000     5.521000000    -3.504000000
H    -5.617000000     6.138000000    -4.333000000
C    -6.157000000     4.576000000    -2.907000000
H    -7.025000000     4.144000000    -3.399000000
C    -5.764000000     4.013000000    -1.672000000
O    -6.532000000     3.036000000    -1.175000000
C    -6.133000000     1.766000000    -0.794000000
C    -6.564000000     1.223000000     0.460000000
H    -7.245000000     1.786000000     1.094000000
C    -6.055000000    -0.011000000     0.815000000
O    -6.659000000    -0.598000000     1.949000000
C    -6.149000000    -1.748000000     2.518000000
C    -4.977000000    -1.631000000     3.331000000
H    -4.568000000    -0.624000000     3.327000000
C    -6.666000000    -3.038000000     2.392000000
H    -7.541000000    -3.115000000     1.753000000
C    -6.154000000    -4.096000000     3.197000000
H    -6.616000000    -5.079000000     3.163000000
C    -5.067000000    -3.859000000     4.087000000
H    -4.765000000    -4.681000000     4.732000000
C    -4.389000000    -2.674000000     4.013000000
O    -3.314000000    -2.386000000     4.804000000
C    -2.055000000    -2.904000000     4.617000000
C    -1.154000000    -2.905000000     5.712000000
H    -1.458000000    -2.420000000     6.636000000
C     0.153000000    -3.394000000     5.475000000
O     1.153000000    -3.276000000     6.447000000
C     2.485000000    -2.799000000     6.221000000
C     3.519000000    -3.695000000     6.262000000
H     3.278000000    -4.725000000     6.514000000
C     4.795000000    -3.333000000     5.909000000
H     5.594000000    -4.070000000     5.872000000
C     5.093000000    -2.018000000     5.485000000
H     6.102000000    -1.739000000     5.191000000
C     4.047000000    -1.093000000     5.540000000
C     2.740000000    -1.480000000     5.938000000
H     1.924000000    -0.773000000     5.812000000
C    -2.179000000     1.537000000     1.321000000
H    -3.238000000     1.538000000     1.565000000
C    -1.549000000     0.392000000     0.866000000
H    -2.190000000    -0.472000000     0.713000000
C    -0.186000000     0.450000000     0.509000000
H     0.296000000    -0.452000000     0.086000000
C     0.535000000     1.659000000     0.654000000
H     1.583000000     1.712000000     0.369000000
C    -0.092000000     2.798000000     1.077000000
H     0.485000000     3.720000000     1.058000000
C    -1.448000000     2.727000000     1.497000000
C    -2.116000000     3.960000000     2.054000000
O    -1.496000000     5.024000000     2.340000000
O    -3.338000000     3.989000000     2.237000000
O     1.250000000     4.020000000     3.633000000
H     0.327000000     3.957000000     3.388000000
H     1.358000000     4.924000000     3.931000000
O     0.304000000     0.062000000     3.252000000
H     0.941000000     0.733000000     3.006000000
H    -0.437000000     0.208000000     2.664000000
O    -4.387000000     2.028000000     4.076000000
H    -4.001000000     2.551000000     3.373000000
H    -5.039000000     2.606000000     4.474000000
O    -0.412000000     6.510000000     4.453000000
H    -1.126000000     6.419000000     5.083000000
H    -0.734000000     6.079000000     3.662000000
O    -3.338000000     9.823000000     3.270000000
H    -3.371000000     8.955000000     2.868000000
H    -4.254000000    10.041000000     3.444000000
O    -7.231000000     6.313000000     5.472000000
H    -6.995000000     5.456000000     5.118000000
H    -6.758000000     6.938000000     4.922000000
O    -7.057000000     3.783000000     4.968000000
H    -7.018000000     2.966000000     5.466000000
H    -7.752000000     3.639000000     4.326000000
O     1.805000000     8.804000000     3.347000000
H     1.257000000     8.021000000     3.405000000
H     1.928000000     9.078000000     4.255000000
O    -2.733000000     7.156000000     1.600000000
H    -2.201000000     6.571000000     2.140000000
H    -2.971000000     6.627000000     0.838000000
O    -3.172000000     0.738000000     6.124000000
H    -3.680000000     0.806000000     5.316000000
H    -3.623000000     0.065000000     6.634000000
O    -3.369000000     5.432000000     4.652000000
H    -3.462000000     4.791000000     5.357000000
H    -3.269000000     4.904000000     3.860000000
O    -1.262000000     9.408000000     0.904000000
H    -1.749000000     8.608000000     1.100000000
H    -1.667000000    10.076000000     1.457000000
O    -3.477000000     3.392000000     6.953000000
H    -4.433000000     3.409000000     6.999000000
H    -3.276000000     2.611000000     6.437000000
O    -5.378000000     7.141000000     3.504000000
H    -5.725000000     6.349000000     3.092000000
H    -4.599000000     6.844000000     3.975000000
O    -6.067000000     4.811000000     2.217000000
H    -5.144000000     4.556000000     2.216000000
H    -6.470000000     4.256000000     1.550000000
O    -8.285000000     7.043000000     2.588000000
H    -7.432000000     6.618000000     2.681000000
H    -8.915000000     6.374000000     2.855000000
O     1.817000000     2.842000000     6.108000000
H     1.639000000     3.173000000     5.228000000
H     1.030000000     2.350000000     6.343000000
O    -3.926000000     7.500000000     6.491000000
H    -3.646000000     7.110000000     5.663000000
H    -3.133000000     7.517000000     7.028000000
O    -0.280000000     1.285000000     6.108000000
H    -1.207000000     1.067000000     6.016000000
H     0.086000000     1.152000000     5.234000000
