215
-1448.07864
C    -1.694000000     4.366000000    -2.294000000
H    -2.521000000     3.705000000    -2.543000000
C    -0.366000000     4.010000000    -2.619000000
C     0.688000000     4.885000000    -2.288000000
H     1.684000000     4.744000000    -2.699000000
C    -0.097000000     2.731000000    -3.386000000
O    -1.190000000     2.364000000    -4.299000000
H    -0.012000000     1.916000000    -2.653000000
O     1.135000000     2.690000000    -4.044000000
C     1.978000000     1.702000000    -3.696000000
C     3.016000000     1.914000000    -2.813000000
H     3.117000000     2.869000000    -2.304000000
C     3.766000000     0.856000000    -2.408000000
O     4.548000000     1.014000000    -1.289000000
C     3.554000000    -0.393000000    -2.994000000
C     4.411000000    -1.582000000    -2.670000000
H     4.536000000    -2.093000000    -3.627000000
C     3.806000000    -2.414000000    -1.615000000
C     2.980000000    -3.494000000    -1.917000000
H     2.875000000    -3.739000000    -2.971000000
H     5.400000000    -1.248000000    -2.348000000
C     2.557000000    -0.554000000    -3.974000000
H     2.423000000    -1.523000000    -4.448000000
C     1.723000000     0.438000000    -4.313000000
C     0.649000000     0.450000000    -5.428000000
H     0.941000000    -0.280000000    -6.186000000
H     0.610000000     1.421000000    -5.927000000
C    -0.699000000     0.067000000    -4.844000000
C    -1.032000000    -1.283000000    -4.723000000
H    -0.356000000    -2.067000000    -5.056000000
C    -1.513000000     1.035000000    -4.310000000
C    -2.701000000     0.680000000    -3.661000000
H    -3.369000000     1.377000000    -3.161000000
C    -3.106000000    -0.669000000    -3.593000000
O    -4.181000000    -0.977000000    -2.756000000
C    -3.773000000    -1.417000000    -1.453000000
C    -4.585000000    -0.744000000    -0.395000000
C    -4.520000000    -1.165000000     0.967000000
H    -3.938000000    -2.053000000     1.199000000
C    -5.091000000     0.533000000    -0.673000000
H    -5.013000000     0.965000000    -1.668000000
O    -3.797000000    -2.827000000    -1.400000000
H    -2.708000000    -1.174000000    -1.320000000
C    -2.213000000    -1.655000000    -4.117000000
C    -2.405000000    -3.162000000    -3.862000000
H    -2.066000000    -3.887000000    -4.605000000
H    -3.482000000    -3.335000000    -3.804000000
C    -1.825000000    -3.574000000    -2.554000000
C    -0.585000000    -4.224000000    -2.585000000
H    -0.034000000    -4.572000000    -3.455000000
C    -2.642000000    -3.521000000    -1.451000000
C    -2.103000000    -3.957000000    -0.223000000
H    -2.734000000    -3.915000000     0.661000000
C    -0.853000000    -4.527000000    -0.191000000
O    -0.429000000    -4.845000000     1.105000000
C     0.363000000    -3.847000000     1.697000000
C     0.152000000    -3.679000000     3.185000000
C    -1.122000000    -3.976000000     3.682000000
H    -1.933000000    -4.264000000     3.018000000
C     1.104000000    -3.203000000     3.984000000
H     2.095000000    -2.959000000     3.611000000
O     1.668000000    -4.325000000     1.415000000
H     0.155000000    -2.912000000     1.157000000
C    -0.149000000    -4.781000000    -1.365000000
C     1.244000000    -5.323000000    -1.176000000
H     1.466000000    -5.719000000    -2.170000000
H     1.349000000    -6.133000000    -0.452000000
C     2.287000000    -4.206000000    -0.915000000
C     2.410000000    -3.742000000     0.379000000
C     3.229000000    -2.673000000     0.700000000
H     3.453000000    -2.359000000     1.716000000
C     3.969000000    -2.037000000    -0.269000000
O     4.737000000    -0.992000000    -0.035000000
C     4.104000000     0.316000000    -0.107000000
H     3.048000000     0.133000000    -0.356000000
C     4.366000000     1.204000000     1.084000000
C     4.063000000     2.577000000     0.932000000
H     3.753000000     3.053000000     0.006000000
C     4.564000000     0.694000000     2.391000000
H     4.751000000    -0.371000000     2.503000000
C     4.567000000     1.511000000     3.512000000
O     4.839000000     0.964000000     4.755000000
C     4.312000000     2.856000000     3.376000000
H     4.191000000     3.434000000     4.289000000
C     4.004000000     3.322000000     2.073000000
O     3.836000000     4.720000000     2.038000000
C     3.842000000     5.505000000     0.898000000
C     2.630000000     5.856000000     0.337000000
H     1.709000000     5.530000000     0.813000000
C     5.014000000     5.706000000     0.190000000
H     5.982000000     5.455000000     0.617000000
C     4.962000000     6.438000000    -1.022000000
H     5.932000000     6.741000000    -1.408000000
C     3.791000000     6.861000000    -1.531000000
H     3.605000000     7.458000000    -2.421000000
C     2.617000000     6.539000000    -0.864000000
O     1.447000000     6.944000000    -1.345000000
C     0.440000000     6.068000000    -1.617000000
C    -0.910000000     6.432000000    -1.326000000
H    -1.077000000     7.420000000    -0.905000000
C    -1.944000000     5.590000000    -1.666000000
O    -3.240000000     5.957000000    -1.328000000
C    -4.300000000     5.155000000    -1.475000000
C    -4.740000000     4.268000000    -0.515000000
H    -4.210000000     4.076000000     0.414000000
C    -5.058000000     5.415000000    -2.585000000
H    -4.813000000     6.318000000    -3.138000000
C    -6.135000000     4.612000000    -2.975000000
H    -6.648000000     4.693000000    -3.929000000
C    -6.525000000     3.676000000    -2.011000000
H    -7.424000000     3.115000000    -2.256000000
C    -5.769000000     3.438000000    -0.813000000
O    -6.285000000     2.541000000     0.116000000
C    -5.748000000     1.278000000     0.318000000
C    -5.828000000     0.751000000     1.618000000
H    -6.250000000     1.392000000     2.388000000
C    -5.266000000    -0.512000000     1.921000000
O    -5.157000000    -1.025000000     3.172000000
C    -4.988000000    -2.335000000     3.511000000
C    -4.068000000    -2.654000000     4.527000000
H    -3.508000000    -1.801000000     4.902000000
C    -5.499000000    -3.401000000     2.778000000
H    -6.090000000    -3.271000000     1.875000000
C    -5.174000000    -4.759000000     3.077000000
H    -5.657000000    -5.473000000     2.415000000
C    -4.321000000    -5.051000000     4.105000000
H    -3.973000000    -6.065000000     4.285000000
C    -3.756000000    -3.973000000     4.851000000
O    -2.596000000    -4.170000000     5.558000000
C    -1.361000000    -3.952000000     5.052000000
C    -0.407000000    -3.372000000     5.890000000
H    -0.600000000    -3.243000000     6.952000000
C     0.843000000    -3.058000000     5.347000000
O     1.812000000    -2.712000000     6.231000000
C     3.043000000    -2.101000000     5.816000000
C     4.126000000    -2.961000000     5.840000000
H     4.058000000    -3.943000000     6.302000000
C     5.398000000    -2.479000000     5.684000000
H     6.205000000    -3.152000000     5.960000000
C     5.588000000    -1.143000000     5.326000000
H     6.580000000    -0.723000000     5.182000000
C     4.485000000    -0.311000000     5.104000000
C     3.185000000    -0.722000000     5.432000000
H     2.352000000    -0.025000000     5.386000000
C    -1.760000000     1.102000000     1.212000000
H    -2.639000000     0.637000000     1.652000000
C    -1.104000000     0.380000000     0.198000000
H    -1.268000000    -0.668000000    -0.040000000
C     0.131000000     0.863000000    -0.231000000
H     0.815000000     0.355000000    -0.880000000
C     0.558000000     2.081000000     0.244000000
H     1.515000000     2.458000000    -0.106000000
C    -0.263000000     2.859000000     1.065000000
H     0.091000000     3.773000000     1.533000000
C    -1.431000000     2.354000000     1.657000000
C    -2.241000000     3.138000000     2.620000000
O    -1.747000000     4.164000000     3.095000000
O    -3.359000000     2.833000000     2.958000000
O    -7.222000000     1.979000000     5.233000000
H    -7.746000000     2.044000000     4.434000000
H    -7.154000000     2.880000000     5.548000000
O     0.716000000     4.358000000     4.001000000
H    -0.156000000     4.135000000     3.674000000
H     0.638000000     5.269000000     4.286000000
O     0.610000000     0.510000000     3.397000000
H     0.001000000     0.382000000     2.669000000
H     1.475000000     0.512000000     2.988000000
O    -4.077000000     1.703000000     5.199000000
H    -3.806000000     2.196000000     4.425000000
H    -4.897000000     1.282000000     4.942000000
O     0.061000000     7.037000000     4.506000000
H     0.051000000     7.708000000     5.189000000
H    -0.664000000     7.273000000     3.928000000
O    -2.591000000     8.580000000     3.915000000
H    -2.874000000     8.767000000     3.020000000
H    -2.985000000     7.731000000     4.117000000
O    -1.917000000     6.489000000     1.751000000
H    -1.922000000     5.738000000     2.345000000
H    -2.302000000     6.156000000     0.941000000
O    -2.395000000     0.050000000     6.721000000
H    -3.040000000     0.583000000     6.255000000
H    -2.917000000    -0.598000000     7.194000000
O    -2.790000000     4.716000000     5.414000000
H    -2.876000000     3.871000000     5.856000000
H    -2.436000000     4.501000000     4.552000000
O    -0.667000000     8.927000000     1.363000000
H     0.028000000     8.935000000     2.021000000
H    -1.166000000     8.133000000     1.551000000
O    -4.418000000     3.158000000     7.555000000
H    -5.182000000     3.731000000     7.495000000
H    -4.423000000     2.665000000     6.734000000
O    -5.119000000     6.486000000     4.754000000
H    -4.615000000     5.885000000     5.303000000
H    -6.020000000     6.395000000     5.063000000
O    -4.933000000     5.014000000     2.593000000
H    -4.218000000     4.428000000     2.840000000
H    -5.095000000     5.539000000     3.377000000
O    -5.533000000     8.907000000     3.202000000
H    -5.064000000     8.114000000     3.463000000
H    -6.458000000     8.664000000     3.244000000
O    -7.302000000     5.643000000     1.321000000
H    -6.478000000     5.296000000     1.664000000
H    -7.240000000     6.588000000     1.459000000
O     1.845000000     3.344000000     6.155000000
H     1.540000000     3.714000000     5.327000000
H     1.469000000     2.464000000     6.178000000
O     1.133000000     5.396000000     7.987000000
H     1.108000000     4.744000000     7.287000000
H     1.279000000     6.227000000     7.535000000
O    -2.021000000     6.593000000     7.236000000
H    -1.992000000     6.029000000     6.464000000
H    -1.453000000     7.331000000     7.015000000
O     0.077000000     0.901000000     6.090000000
H    -0.756000000     0.457000000     6.247000000
H     0.296000000     0.684000000     5.184000000
