215
-1454.18724
C    -0.779000000     5.453000000    -1.777000000
H    -1.650000000     5.227000000    -2.386000000
C     0.443000000     4.717000000    -1.930000000
C     1.518000000     5.102000000    -1.101000000
H     2.499000000     4.636000000    -1.118000000
C     0.486000000     3.541000000    -2.851000000
O    -0.638000000     3.513000000    -3.770000000
H     0.363000000     2.723000000    -2.125000000
O     1.678000000     3.487000000    -3.645000000
C     2.164000000     2.228000000    -3.722000000
C     3.157000000     1.962000000    -2.803000000
H     3.486000000     2.793000000    -2.184000000
C     3.710000000     0.677000000    -2.645000000
O     4.437000000     0.364000000    -1.450000000
C     3.310000000    -0.379000000    -3.544000000
C     3.917000000    -1.719000000    -3.541000000
H     3.884000000    -2.039000000    -4.585000000
C     3.154000000    -2.661000000    -2.594000000
C     2.100000000    -3.423000000    -3.133000000
H     1.787000000    -3.333000000    -4.171000000
H     4.990000000    -1.703000000    -3.343000000
C     2.304000000    -0.044000000    -4.482000000
H     1.937000000    -0.719000000    -5.251000000
C     1.738000000     1.229000000    -4.601000000
C     0.609000000     1.586000000    -5.569000000
H     0.683000000     0.898000000    -6.414000000
H     0.651000000     2.632000000    -5.880000000
C    -0.711000000     1.306000000    -4.866000000
C    -1.268000000     0.039000000    -5.026000000
H    -0.770000000    -0.672000000    -5.681000000
C    -1.304000000     2.307000000    -4.023000000
C    -2.411000000     1.966000000    -3.229000000
H    -2.760000000     2.748000000    -2.560000000
C    -3.017000000     0.751000000    -3.372000000
O    -4.203000000     0.517000000    -2.601000000
C    -3.932000000    -0.286000000    -1.417000000
C    -4.358000000     0.441000000    -0.107000000
C    -4.386000000    -0.385000000     1.026000000
H    -4.074000000    -1.426000000     1.047000000
C    -4.546000000     1.790000000     0.017000000
H    -4.382000000     2.475000000    -0.810000000
O    -4.369000000    -1.676000000    -1.554000000
H    -2.847000000    -0.261000000    -1.239000000
C    -2.484000000    -0.169000000    -4.301000000
C    -3.165000000    -1.492000000    -4.355000000
H    -2.987000000    -1.849000000    -5.372000000
H    -4.256000000    -1.462000000    -4.334000000
C    -2.791000000    -2.537000000    -3.260000000
C    -1.708000000    -3.408000000    -3.521000000
H    -1.203000000    -3.240000000    -4.469000000
C    -3.400000000    -2.590000000    -1.979000000
C    -2.958000000    -3.490000000    -0.947000000
H    -3.389000000    -3.445000000     0.050000000
C    -1.791000000    -4.190000000    -1.221000000
O    -1.343000000    -4.940000000    -0.157000000
C    -0.192000000    -4.515000000     0.585000000
C    -0.417000000    -4.899000000     2.106000000
C    -1.668000000    -4.855000000     2.763000000
H    -2.519000000    -4.536000000     2.166000000
C     0.757000000    -5.120000000     2.835000000
H     1.700000000    -5.122000000     2.294000000
O     1.030000000    -5.110000000     0.018000000
H    -0.066000000    -3.423000000     0.639000000
C    -1.116000000    -4.168000000    -2.489000000
C     0.145000000    -4.944000000    -2.793000000
H     0.276000000    -5.143000000    -3.859000000
H     0.084000000    -5.926000000    -2.320000000
C     1.358000000    -4.179000000    -2.241000000
C     1.678000000    -4.292000000    -0.881000000
C     2.760000000    -3.589000000    -0.418000000
H     3.121000000    -3.853000000     0.572000000
C     3.489000000    -2.781000000    -1.246000000
O     4.445000000    -1.922000000    -0.791000000
C     3.962000000    -0.575000000    -0.470000000
H     2.889000000    -0.683000000    -0.682000000
C     4.134000000    -0.102000000     1.038000000
C     4.581000000     1.167000000     1.219000000
H     4.931000000     1.766000000     0.382000000
C     3.566000000    -0.778000000     2.072000000
H     3.210000000    -1.795000000     1.928000000
C     3.506000000    -0.262000000     3.362000000
O     2.993000000    -0.904000000     4.460000000
C     4.121000000     0.961000000     3.613000000
H     4.364000000     1.260000000     4.629000000
C     4.506000000     1.714000000     2.506000000
O     4.962000000     3.037000000     2.733000000
C     4.879000000     3.992000000     1.784000000
C     3.653000000     4.562000000     1.551000000
H     2.771000000     4.097000000     1.985000000
C     6.096000000     4.587000000     1.411000000
H     7.010000000     4.204000000     1.859000000
C     6.014000000     5.645000000     0.536000000
H     6.865000000     6.312000000     0.426000000
C     4.783000000     6.251000000     0.279000000
H     4.662000000     7.149000000    -0.321000000
C     3.612000000     5.705000000     0.820000000
O     2.470000000     6.416000000     0.698000000
C     1.408000000     6.065000000    -0.132000000
C     0.245000000     6.892000000    -0.072000000
H     0.219000000     7.687000000     0.668000000
C    -0.833000000     6.562000000    -0.826000000
O    -2.079000000     7.150000000    -0.615000000
C    -3.247000000     6.465000000    -0.522000000
C    -3.380000000     5.277000000     0.177000000
H    -2.514000000     4.832000000     0.661000000
C    -4.381000000     6.901000000    -1.204000000
H    -4.313000000     7.820000000    -1.782000000
C    -5.600000000     6.189000000    -1.054000000
H    -6.496000000     6.488000000    -1.593000000
C    -5.718000000     5.183000000    -0.141000000
H    -6.636000000     4.694000000     0.177000000
C    -4.580000000     4.752000000     0.549000000
O    -4.666000000     3.697000000     1.468000000
C    -4.808000000     2.348000000     1.270000000
C    -4.843000000     1.578000000     2.431000000
H    -5.103000000     1.989000000     3.403000000
C    -4.555000000     0.156000000     2.267000000
O    -4.453000000    -0.574000000     3.432000000
C    -4.610000000    -1.901000000     3.480000000
C    -3.618000000    -2.655000000     4.149000000
H    -2.745000000    -2.122000000     4.517000000
C    -5.858000000    -2.419000000     3.264000000
H    -6.610000000    -1.785000000     2.799000000
C    -6.142000000    -3.769000000     3.566000000
H    -7.049000000    -4.309000000     3.307000000
C    -5.071000000    -4.545000000     4.117000000
H    -5.304000000    -5.606000000     4.168000000
C    -3.839000000    -3.987000000     4.394000000
O    -2.818000000    -4.841000000     4.868000000
C    -1.716000000    -5.073000000     4.132000000
C    -0.592000000    -5.473000000     4.830000000
H    -0.581000000    -5.712000000     5.890000000
C     0.644000000    -5.415000000     4.223000000
O     1.854000000    -5.544000000     4.959000000
C     2.771000000    -4.537000000     4.771000000
C     4.081000000    -4.878000000     5.037000000
H     4.379000000    -5.910000000     5.204000000
C     5.101000000    -3.842000000     5.095000000
H     6.124000000    -4.139000000     5.313000000
C     4.736000000    -2.523000000     4.826000000
H     5.434000000    -1.690000000     4.831000000
C     3.401000000    -2.255000000     4.628000000
C     2.424000000    -3.178000000     4.655000000
H     1.374000000    -2.921000000     4.539000000
C    -1.049000000     0.176000000     1.961000000
H    -1.539000000     0.067000000     2.925000000
C    -0.988000000    -1.002000000     1.194000000
H    -1.357000000    -1.931000000     1.621000000
C    -0.344000000    -0.949000000    -0.070000000
H    -0.178000000    -1.859000000    -0.727000000
C     0.221000000     0.196000000    -0.549000000
H     0.758000000     0.226000000    -1.494000000
C     0.203000000     1.316000000     0.269000000
H     0.749000000     2.191000000    -0.075000000
C    -0.409000000     1.364000000     1.560000000
C    -0.234000000     2.572000000     2.405000000
O     0.101000000     3.607000000     1.882000000
O    -0.612000000     2.601000000     3.593000000
O     0.354000000     3.556000000     5.955000000
H    -0.250000000     3.354000000     5.240000000
H     1.176000000     3.778000000     5.519000000
O    -1.337000000     6.713000000     4.705000000
H    -0.828000000     6.766000000     5.514000000
H    -0.691000000     6.511000000     4.029000000
O     2.521000000     5.412000000     7.536000000
H     2.799000000     5.172000000     6.652000000
H     2.463000000     4.578000000     8.003000000
O    -3.719000000     6.980000000     3.353000000
H    -2.841000000     6.669000000     3.572000000
H    -4.293000000     6.240000000     3.553000000
O    -1.567000000     2.483000000     7.435000000
H    -1.430000000     2.529000000     8.381000000
H    -0.734000000     2.765000000     7.058000000
O    -3.211000000     1.933000000     5.291000000
H    -2.646000000     2.261000000     5.990000000
H    -3.148000000     2.595000000     4.602000000
O     0.812000000     0.699000000     4.879000000
H     1.462000000     0.341000000     4.275000000
H     0.241000000     1.234000000     4.327000000
O    -3.494000000    -0.156000000     7.358000000
H    -3.495000000     0.585000000     6.751000000
H    -3.769000000     0.219000000     8.194000000
O     2.322000000     3.186000000     8.882000000
H     2.177000000     2.548000000     8.184000000
H     3.154000000     2.924000000     9.277000000
O     4.904000000     6.914000000     3.778000000
H     4.687000000     6.544000000     2.922000000
H     5.702000000     6.456000000     4.042000000
O     0.678000000     6.311000000     2.924000000
H     0.308000000     5.432000000     3.005000000
H     0.975000000     6.363000000     2.016000000
O    -0.966000000    -1.171000000     6.168000000
H    -0.483000000    -0.418000000     5.827000000
H    -1.767000000    -0.796000000     6.534000000
O    -3.035000000     8.986000000     1.675000000
H    -3.519000000     8.737000000     0.888000000
H    -3.313000000     8.354000000     2.338000000
O    -2.918000000     4.137000000     3.569000000
H    -1.991000000     3.898000000     3.564000000
H    -3.259000000     3.787000000     2.746000000
O     2.032000000     1.126000000     7.451000000
H     1.747000000     0.351000000     7.934000000
H     1.494000000     1.128000000     6.660000000
O    -6.327000000     2.627000000     5.956000000
H    -5.376000000     2.644000000     5.850000000
H    -6.476000000     2.015000000     6.677000000
O     2.466000000     8.284000000     4.770000000
H     2.994000000     8.386000000     3.977000000
H     1.737000000     7.725000000     4.501000000
O     3.310000000     4.036000000     5.316000000
H     3.412000000     4.238000000     4.386000000
H     4.155000000     3.668000000     5.576000000
O    -2.839000000     5.526000000     6.835000000
H    -2.176000000     4.839000000     6.764000000
H    -2.891000000     5.900000000     5.955000000
