215
-1475.73177
C    -1.423000000     4.623000000    -0.992000000
H    -2.251000000     3.965000000    -1.243000000
C    -0.192000000     4.428000000    -1.597000000
C     0.872000000     5.265000000    -1.306000000
H     1.812000000     5.258000000    -1.851000000
C    -0.041000000     3.323000000    -2.648000000
O    -1.254000000     3.229000000    -3.458000000
H     0.068000000     2.373000000    -2.104000000
O     1.071000000     3.407000000    -3.459000000
C     1.878000000     2.307000000    -3.720000000
C     2.964000000     2.140000000    -2.870000000
H     3.233000000     2.930000000    -2.174000000
C     3.704000000     1.014000000    -2.893000000
O     4.676000000     0.811000000    -1.972000000
C     3.396000000    -0.097000000    -3.748000000
C     4.096000000    -1.430000000    -3.699000000
H     3.972000000    -1.953000000    -4.649000000
C     3.501000000    -2.287000000    -2.579000000
C     2.520000000    -3.208000000    -2.945000000
H     2.148000000    -3.254000000    -3.965000000
H     5.178000000    -1.353000000    -3.571000000
C     2.258000000     0.038000000    -4.478000000
H     1.816000000    -0.804000000    -5.004000000
C     1.462000000     1.243000000    -4.460000000
C     0.230000000     1.423000000    -5.339000000
H     0.343000000     0.930000000    -6.307000000
H     0.263000000     2.404000000    -5.816000000
C    -1.085000000     1.095000000    -4.697000000
C    -1.589000000    -0.226000000    -4.847000000
H    -1.124000000    -0.885000000    -5.575000000
C    -1.788000000     2.011000000    -3.859000000
C    -2.897000000     1.530000000    -3.124000000
H    -3.439000000     2.181000000    -2.443000000
C    -3.305000000     0.189000000    -3.221000000
O    -4.282000000    -0.295000000    -2.430000000
C    -3.871000000    -0.993000000    -1.212000000
C    -4.519000000    -0.504000000     0.078000000
C    -4.528000000    -1.263000000     1.256000000
H    -3.923000000    -2.165000000     1.208000000
C    -5.110000000     0.723000000     0.192000000
H    -5.217000000     1.379000000    -0.668000000
O    -4.091000000    -2.461000000    -1.327000000
H    -2.823000000    -0.730000000    -1.001000000
C    -2.657000000    -0.706000000    -4.067000000
C    -3.065000000    -2.212000000    -4.014000000
H    -2.744000000    -2.644000000    -4.964000000
H    -4.153000000    -2.295000000    -4.024000000
C    -2.280000000    -2.928000000    -2.882000000
C    -1.071000000    -3.573000000    -3.092000000
H    -0.674000000    -3.545000000    -4.104000000
C    -2.879000000    -3.048000000    -1.593000000
C    -2.298000000    -3.777000000    -0.609000000
H    -2.718000000    -3.893000000     0.387000000
C    -1.055000000    -4.432000000    -0.858000000
O    -0.473000000    -5.025000000     0.158000000
C     0.590000000    -4.409000000     0.885000000
C     0.391000000    -4.709000000     2.305000000
C    -0.859000000    -5.085000000     2.808000000
H    -1.615000000    -5.256000000     2.046000000
C     1.284000000    -4.296000000     3.249000000
H     2.261000000    -3.892000000     2.994000000
O     1.846000000    -4.803000000     0.343000000
H     0.581000000    -3.312000000     0.800000000
C    -0.472000000    -4.384000000    -2.139000000
C     0.931000000    -5.001000000    -2.425000000
H     0.938000000    -5.272000000    -3.483000000
H     1.005000000    -5.896000000    -1.804000000
C     1.998000000    -4.135000000    -2.007000000
C     2.464000000    -4.079000000    -0.627000000
C     3.473000000    -3.162000000    -0.332000000
H     3.725000000    -2.972000000     0.708000000
C     3.950000000    -2.253000000    -1.269000000
O     4.820000000    -1.241000000    -0.866000000
C     4.251000000     0.046000000    -0.871000000
H     3.151000000     0.050000000    -0.885000000
C     4.551000000     0.831000000     0.380000000
C     4.976000000     2.173000000     0.414000000
H     5.193000000     2.698000000    -0.512000000
C     4.314000000     0.151000000     1.573000000
H     3.932000000    -0.867000000     1.568000000
C     4.437000000     0.782000000     2.789000000
O     3.898000000     0.266000000     3.975000000
C     4.658000000     2.192000000     2.822000000
H     4.625000000     2.703000000     3.781000000
C     4.944000000     2.835000000     1.626000000
O     5.254000000     4.146000000     1.748000000
C     4.820000000     5.139000000     0.855000000
C     3.465000000     5.386000000     0.738000000
H     2.709000000     4.687000000     1.084000000
C     5.782000000     6.008000000     0.300000000
H     6.826000000     5.727000000     0.410000000
C     5.374000000     7.159000000    -0.377000000
H     6.084000000     7.876000000    -0.781000000
C     4.014000000     7.503000000    -0.331000000
H     3.651000000     8.463000000    -0.690000000
C     3.031000000     6.599000000     0.110000000
O     1.707000000     7.043000000     0.016000000
C     0.707000000     6.134000000    -0.205000000
C    -0.556000000     6.369000000     0.372000000
H    -0.659000000     7.140000000     1.131000000
C    -1.633000000     5.600000000    -0.016000000
O    -2.889000000     5.871000000     0.460000000
C    -4.079000000     5.304000000     0.078000000
C    -4.555000000     4.283000000     0.923000000
H    -3.915000000     3.980000000     1.748000000
C    -4.714000000     5.577000000    -1.116000000
H    -4.260000000     6.336000000    -1.748000000
C    -5.959000000     5.058000000    -1.401000000
H    -6.470000000     5.360000000    -2.312000000
C    -6.452000000     4.046000000    -0.546000000
H    -7.420000000     3.623000000    -0.804000000
C    -5.800000000     3.611000000     0.570000000
O    -6.141000000     2.525000000     1.372000000
C    -5.521000000     1.311000000     1.391000000
C    -5.410000000     0.553000000     2.529000000
H    -5.791000000     1.000000000     3.443000000
C    -4.984000000    -0.778000000     2.486000000
O    -4.904000000    -1.418000000     3.693000000
C    -4.877000000    -2.759000000     3.931000000
C    -3.707000000    -3.367000000     4.336000000
H    -2.817000000    -2.759000000     4.474000000
C    -6.057000000    -3.490000000     3.641000000
H    -6.948000000    -2.911000000     3.411000000
C    -6.038000000    -4.844000000     3.790000000
H    -6.957000000    -5.384000000     3.573000000
C    -4.847000000    -5.523000000     4.093000000
H    -4.799000000    -6.597000000     4.253000000
C    -3.658000000    -4.796000000     4.407000000
O    -2.467000000    -5.445000000     4.710000000
C    -1.199000000    -5.116000000     4.131000000
C    -0.240000000    -4.742000000     5.039000000
H    -0.532000000    -4.505000000     6.058000000
C     0.990000000    -4.277000000     4.587000000
O     1.864000000    -3.756000000     5.471000000
C     3.048000000    -3.035000000     5.104000000
C     4.277000000    -3.671000000     5.054000000
H     4.335000000    -4.702000000     5.394000000
C     5.394000000    -3.049000000     4.651000000
H     6.392000000    -3.458000000     4.788000000
C     5.309000000    -1.715000000     4.331000000
H     6.271000000    -1.213000000     4.267000000
C     4.056000000    -1.071000000     4.331000000
C     2.926000000    -1.758000000     4.678000000
H     2.025000000    -1.153000000     4.730000000
C    -1.532000000    -0.215000000     3.100000000
H    -1.981000000    -0.486000000     4.053000000
C    -1.066000000    -1.161000000     2.167000000
H    -1.077000000    -2.174000000     2.563000000
C    -0.825000000    -0.767000000     0.874000000
H    -0.512000000    -1.534000000     0.143000000
C    -0.897000000     0.590000000     0.501000000
H    -0.610000000     0.939000000    -0.487000000
C    -1.160000000     1.549000000     1.511000000
H    -1.165000000     2.606000000     1.256000000
C    -1.577000000     1.137000000     2.783000000
C    -1.961000000     2.128000000     3.896000000
O    -1.628000000     3.314000000     3.730000000
O    -2.490000000     1.783000000     4.926000000
O    -1.305000000     6.208000000     6.161000000
H    -1.586000000     6.824000000     6.838000000
H    -1.671000000     5.367000000     6.435000000
O    -4.869000000    -2.347000000     7.646000000
H    -4.212000000    -1.792000000     7.226000000
H    -5.063000000    -1.905000000     8.472000000
O    -1.170000000     7.705000000     3.944000000
H    -1.301000000     7.133000000     4.700000000
H    -0.245000000     7.603000000     3.723000000
O    -6.937000000     4.920000000     3.269000000
H    -7.611000000     4.242000000     3.220000000
H    -6.153000000     4.456000000     3.563000000
O     0.866000000    -1.019000000     8.814000000
H     0.276000000    -1.290000000     9.518000000
H     0.283000000    -0.760000000     8.100000000
O    -2.270000000     3.270000000     7.042000000
H    -3.170000000     3.595000000     7.030000000
H    -2.143000000     2.883000000     6.176000000
O    -7.259000000     2.310000000     5.655000000
H    -6.941000000     1.439000000     5.893000000
H    -6.470000000     2.851000000     5.618000000
O    -0.443000000    -0.585000000     6.554000000
H    -1.267000000    -0.197000000     6.262000000
H     0.210000000     0.098000000     6.402000000
O    -6.744000000    -0.557000000     5.870000000
H    -5.953000000    -0.673000000     5.344000000
H    -6.721000000    -1.278000000     6.499000000
O    -0.322000000     1.841000000     8.820000000
H     0.280000000     1.707000000     8.088000000
H    -1.139000000     2.126000000     8.410000000
O     2.937000000     5.521000000     3.948000000
H     3.575000000     5.550000000     4.661000000
H     2.256000000     4.926000000     4.259000000
O    -3.093000000     5.450000000     3.600000000
H    -2.571000000     4.652000000     3.521000000
H    -2.701000000     6.056000000     2.971000000
O    -3.488000000     0.014000000     6.550000000
H    -3.966000000     0.674000000     7.053000000
H    -3.127000000     0.495000000     5.805000000
O    -4.743000000     3.492000000     4.951000000
H    -4.212000000     2.698000000     5.008000000
H    -4.131000000     4.170000000     4.664000000
O     0.985000000     1.580000000     6.220000000
H     1.917000000     1.564000000     6.439000000
H     0.854000000     2.425000000     5.791000000
O    -4.855000000     2.063000000     7.685000000
H    -4.452000000     2.186000000     8.545000000
H    -4.861000000     2.938000000     7.297000000
O     0.567000000     4.103000000     4.930000000
H    -0.128000000     3.857000000     4.319000000
H     0.196000000     4.828000000     5.433000000
O    -4.694000000     4.930000000     7.595000000
H    -4.537000000     5.812000000     7.257000000
H    -5.517000000     5.003000000     8.078000000
O    -4.218000000     7.147000000     5.746000000
H    -3.452000000     6.839000000     5.263000000
H    -4.836000000     7.418000000     5.067000000
