215
-1438.53294
C    -2.110000000     4.700000000    -2.365000000
H    -2.731000000     4.234000000    -3.126000000
C    -0.741000000     4.335000000    -2.298000000
C     0.048000000     4.891000000    -1.307000000
H     1.015000000     4.421000000    -1.145000000
C    -0.203000000     3.060000000    -3.034000000
O    -0.969000000     2.703000000    -4.172000000
H    -0.282000000     2.249000000    -2.295000000
O     1.125000000     3.173000000    -3.333000000
C     1.995000000     2.169000000    -3.100000000
C     2.782000000     2.254000000    -1.943000000
H     2.733000000     3.059000000    -1.214000000
C     3.708000000     1.254000000    -1.728000000
O     4.512000000     1.258000000    -0.647000000
C     3.857000000     0.230000000    -2.687000000
C     4.844000000    -0.929000000    -2.443000000
H     5.271000000    -1.353000000    -3.354000000
C     4.193000000    -1.988000000    -1.564000000
C     3.364000000    -3.004000000    -2.122000000
H     3.259000000    -3.064000000    -3.202000000
H     5.762000000    -0.508000000    -2.026000000
C     3.055000000     0.174000000    -3.838000000
H     3.263000000    -0.605000000    -4.567000000
C     2.018000000     1.151000000    -4.057000000
C     1.271000000     1.120000000    -5.315000000
H     1.722000000     0.510000000    -6.100000000
H     1.262000000     2.141000000    -5.702000000
C    -0.063000000     0.551000000    -4.924000000
C    -0.293000000    -0.865000000    -4.927000000
H     0.515000000    -1.495000000    -5.289000000
C    -1.095000000     1.336000000    -4.448000000
C    -2.311000000     0.806000000    -4.003000000
H    -3.040000000     1.454000000    -3.524000000
C    -2.528000000    -0.565000000    -3.895000000
O    -3.641000000    -1.106000000    -3.318000000
C    -3.480000000    -1.549000000    -1.939000000
C    -4.626000000    -1.035000000    -1.071000000
C    -5.085000000    -1.790000000    -0.013000000
H    -4.693000000    -2.787000000     0.174000000
C    -5.066000000     0.339000000    -1.163000000
H    -4.685000000     1.054000000    -1.888000000
O    -3.423000000    -2.992000000    -2.044000000
H    -2.518000000    -1.185000000    -1.548000000
C    -1.504000000    -1.407000000    -4.434000000
C    -1.745000000    -2.874000000    -4.448000000
H    -1.365000000    -3.342000000    -5.359000000
H    -2.792000000    -3.097000000    -4.662000000
C    -1.310000000    -3.515000000    -3.118000000
C    -0.048000000    -4.078000000    -3.056000000
H     0.704000000    -3.924000000    -3.827000000
C    -2.175000000    -3.597000000    -2.020000000
C    -1.737000000    -4.170000000    -0.782000000
H    -2.441000000    -4.177000000     0.046000000
C    -0.463000000    -4.633000000    -0.700000000
O    -0.081000000    -4.924000000     0.498000000
C     0.805000000    -3.992000000     1.181000000
C     0.346000000    -3.810000000     2.610000000
C    -0.966000000    -3.492000000     2.974000000
H    -1.863000000    -3.372000000     2.372000000
C     1.280000000    -3.729000000     3.632000000
H     2.330000000    -3.901000000     3.411000000
O     2.193000000    -4.454000000     0.919000000
H     0.666000000    -3.085000000     0.575000000
C     0.442000000    -4.513000000    -1.823000000
C     1.854000000    -4.995000000    -1.804000000
H     2.191000000    -5.482000000    -2.721000000
H     1.755000000    -5.783000000    -1.055000000
C     2.775000000    -3.929000000    -1.270000000
C     2.951000000    -3.737000000     0.054000000
C     3.730000000    -2.786000000     0.689000000
H     3.897000000    -2.797000000     1.763000000
C     4.243000000    -1.868000000    -0.129000000
O     4.936000000    -0.804000000     0.464000000
C     4.203000000     0.350000000     0.493000000
H     3.123000000     0.141000000     0.489000000
C     4.346000000     1.154000000     1.788000000
C     4.275000000     2.546000000     1.777000000
H     4.360000000     3.119000000     0.858000000
C     4.279000000     0.561000000     3.003000000
H     4.195000000    -0.523000000     3.012000000
C     4.341000000     1.258000000     4.231000000
O     4.309000000     0.580000000     5.463000000
C     4.292000000     2.650000000     4.240000000
H     4.263000000     3.226000000     5.161000000
C     4.145000000     3.289000000     3.013000000
O     4.130000000     4.607000000     2.965000000
C     3.606000000     5.364000000     1.889000000
C     2.260000000     5.438000000     1.672000000
H     1.614000000     4.885000000     2.348000000
C     4.388000000     6.192000000     1.082000000
H     5.437000000     6.326000000     1.335000000
C     3.862000000     6.975000000     0.067000000
H     4.621000000     7.496000000    -0.511000000
C     2.460000000     6.989000000    -0.163000000
H     1.998000000     7.567000000    -0.960000000
C     1.642000000     6.264000000     0.704000000
O     0.262000000     6.373000000     0.537000000
C    -0.472000000     5.898000000    -0.491000000
C    -1.768000000     6.323000000    -0.628000000
H    -2.052000000     7.210000000    -0.068000000
C    -2.622000000     5.688000000    -1.535000000
O    -4.029000000     6.004000000    -1.556000000
C    -4.909000000     5.084000000    -1.835000000
C    -5.207000000     4.087000000    -0.944000000
H    -4.704000000     4.088000000     0.019000000
C    -5.572000000     5.126000000    -3.072000000
H    -5.454000000     5.969000000    -3.749000000
C    -6.403000000     4.071000000    -3.382000000
H    -6.836000000     3.918000000    -4.367000000
C    -6.708000000     3.128000000    -2.481000000
H    -7.447000000     2.350000000    -2.650000000
C    -6.178000000     3.138000000    -1.238000000
O    -6.516000000     2.139000000    -0.362000000
C    -6.073000000     0.812000000    -0.373000000
C    -6.553000000     0.009000000     0.657000000
H    -7.167000000     0.421000000     1.453000000
C    -6.099000000    -1.301000000     0.833000000
O    -6.382000000    -1.936000000     2.038000000
C    -5.541000000    -2.908000000     2.527000000
C    -4.432000000    -2.507000000     3.313000000
H    -4.221000000    -1.476000000     3.583000000
C    -5.772000000    -4.239000000     2.328000000
H    -6.682000000    -4.571000000     1.834000000
C    -4.880000000    -5.133000000     2.807000000
H    -5.033000000    -6.201000000     2.680000000
C    -3.796000000    -4.738000000     3.613000000
H    -3.099000000    -5.510000000     3.932000000
C    -3.646000000    -3.430000000     3.951000000
O    -2.563000000    -2.995000000     4.733000000
C    -1.272000000    -3.199000000     4.295000000
C    -0.295000000    -3.219000000     5.276000000
H    -0.543000000    -2.947000000     6.299000000
C     0.984000000    -3.565000000     4.983000000
O     1.918000000    -3.583000000     5.919000000
C     3.088000000    -2.803000000     5.889000000
C     4.267000000    -3.500000000     6.193000000
H     4.191000000    -4.565000000     6.393000000
C     5.525000000    -2.796000000     6.176000000
H     6.412000000    -3.413000000     6.301000000
C     5.488000000    -1.419000000     5.989000000
H     6.442000000    -0.900000000     6.038000000
C     4.285000000    -0.733000000     5.687000000
C     3.096000000    -1.416000000     5.577000000
H     2.185000000    -0.839000000     5.445000000
C    -1.979000000     0.145000000     1.344000000
H    -2.816000000    -0.500000000     1.599000000
C    -0.944000000    -0.252000000     0.465000000
H    -1.037000000    -1.213000000    -0.034000000
C     0.119000000     0.651000000     0.232000000
H     0.912000000     0.323000000    -0.411000000
C     0.114000000     1.912000000     0.692000000
H     0.937000000     2.610000000     0.558000000
C    -0.933000000     2.293000000     1.524000000
H    -0.981000000     3.344000000     1.800000000
C    -1.991000000     1.455000000     1.812000000
C    -2.967000000     1.991000000     2.802000000
O    -3.044000000     3.164000000     3.131000000
O    -3.738000000     1.245000000     3.392000000
O    -1.337000000     4.581000000     7.607000000
H    -1.872000000     4.571000000     8.401000000
H    -1.943000000     4.337000000     6.908000000
O     1.192000000     1.237000000     3.875000000
H     1.031000000     2.167000000     4.036000000
H     1.100000000     1.139000000     2.927000000
O    -2.823000000     7.749000000     6.724000000
H    -2.975000000     6.887000000     6.336000000
H    -3.670000000     8.191000000     6.665000000
O    -5.059000000     1.485000000     7.542000000
H    -5.957000000     1.164000000     7.622000000
H    -5.017000000     1.862000000     6.663000000
O     0.171000000     3.492000000     4.932000000
H    -0.220000000     4.321000000     4.659000000
H    -0.328000000     3.236000000     5.708000000
O    -2.819000000     0.180000000     5.493000000
H    -3.026000000     0.602000000     4.659000000
H    -2.612000000     0.904000000     6.083000000
O    -4.022000000    -1.834000000     7.275000000
H    -3.778000000    -1.146000000     7.893000000
H    -3.644000000    -1.553000000     6.442000000
O    -1.145000000     5.451000000     3.739000000
H    -1.656000000     6.027000000     4.308000000
H    -1.781000000     4.817000000     3.407000000
O    -5.572000000     4.082000000     2.755000000
H    -5.854000000     3.168000000     2.781000000
H    -4.632000000     4.048000000     2.933000000
O    -3.007000000     3.390000000     5.807000000
H    -3.835000000     3.855000000     5.928000000
H    -3.040000000     3.074000000     4.904000000
O    -7.672000000    -1.112000000     4.401000000
H    -7.144000000    -1.380000000     3.649000000
H    -7.371000000    -0.225000000     4.601000000
O    -7.656000000     6.004000000     2.774000000
H    -7.002000000     5.309000000     2.703000000
H    -7.765000000     6.136000000     3.716000000
O     0.474000000     7.921000000     3.194000000
H     0.047000000     7.083000000     3.018000000
H     0.026000000     8.260000000     3.969000000
O    -6.184000000     1.433000000     3.987000000
H    -6.149000000     2.100000000     4.673000000
H    -5.273000000     1.318000000     3.718000000
O    -0.195000000     0.017000000     5.925000000
H     0.268000000     0.301000000     5.137000000
H    -1.110000000    -0.054000000     5.653000000
O    -8.834000000     1.346000000     3.230000000
H    -9.235000000     1.261000000     4.096000000
H    -7.892000000     1.344000000     3.401000000
O    -5.932000000     3.541000000     5.625000000
H    -6.673000000     3.619000000     6.226000000
H    -6.135000000     4.150000000     4.914000000
O    -3.955000000     6.250000000     4.332000000
H    -4.030000000     7.196000000     4.205000000
H    -4.003000000     5.885000000     3.449000000
O    -3.253000000     0.336000000     9.029000000
H    -3.933000000     0.736000000     8.488000000
H    -3.315000000     0.794000000     9.868000000
