215
-1467.83495
C    -1.759000000     3.935000000    -1.308000000
H    -2.387000000     3.096000000    -1.597000000
C    -0.634000000     4.108000000    -2.070000000
C     0.360000000     5.090000000    -1.762000000
H     1.257000000     5.267000000    -2.349000000
C    -0.237000000     3.035000000    -3.119000000
O    -1.270000000     2.721000000    -4.055000000
H    -0.079000000     2.128000000    -2.517000000
O     0.972000000     3.326000000    -3.888000000
C     1.910000000     2.325000000    -3.833000000
C     2.874000000     2.349000000    -2.821000000
H     3.021000000     3.246000000    -2.226000000
C     3.679000000     1.210000000    -2.539000000
O     4.455000000     1.346000000    -1.419000000
C     3.521000000     0.055000000    -3.371000000
C     4.369000000    -1.214000000    -3.120000000
H     4.460000000    -1.933000000    -3.937000000
C     3.844000000    -2.011000000    -1.962000000
C     3.047000000    -3.075000000    -2.328000000
H     2.770000000    -3.184000000    -3.374000000
H     5.416000000    -0.974000000    -2.928000000
C     2.576000000     0.069000000    -4.412000000
H     2.399000000    -0.823000000    -5.007000000
C     1.790000000     1.157000000    -4.623000000
C     0.594000000     1.030000000    -5.666000000
H     0.799000000     0.375000000    -6.515000000
H     0.317000000     1.998000000    -6.090000000
C    -0.691000000     0.567000000    -5.058000000
C    -0.940000000    -0.815000000    -5.043000000
H    -0.299000000    -1.529000000    -5.554000000
C    -1.520000000     1.377000000    -4.222000000
C    -2.520000000     0.843000000    -3.499000000
H    -3.183000000     1.467000000    -2.905000000
C    -2.854000000    -0.532000000    -3.532000000
O    -3.921000000    -1.007000000    -2.764000000
C    -3.634000000    -1.603000000    -1.537000000
C    -4.662000000    -1.076000000    -0.494000000
C    -4.847000000    -1.753000000     0.685000000
H    -4.226000000    -2.615000000     0.917000000
C    -5.435000000     0.078000000    -0.718000000
H    -5.301000000     0.641000000    -1.638000000
O    -3.700000000    -2.976000000    -1.754000000
H    -2.590000000    -1.368000000    -1.282000000
C    -2.003000000    -1.355000000    -4.320000000
C    -2.259000000    -2.883000000    -4.368000000
H    -1.712000000    -3.281000000    -5.225000000
H    -3.325000000    -3.108000000    -4.445000000
C    -1.728000000    -3.604000000    -3.093000000
C    -0.418000000    -4.054000000    -3.019000000
H     0.195000000    -4.098000000    -3.915000000
C    -2.512000000    -3.612000000    -1.932000000
C    -1.965000000    -4.086000000    -0.695000000
H    -2.578000000    -4.027000000     0.201000000
C    -0.687000000    -4.567000000    -0.644000000
O    -0.151000000    -5.013000000     0.529000000
C     0.779000000    -4.170000000     1.264000000
C     0.582000000    -4.166000000     2.752000000
C    -0.696000000    -4.268000000     3.335000000
H    -1.462000000    -4.527000000     2.608000000
C     1.659000000    -3.912000000     3.672000000
H     2.678000000    -3.902000000     3.294000000
O     2.186000000    -4.427000000     0.961000000
H     0.776000000    -3.099000000     1.013000000
C     0.033000000    -4.592000000    -1.805000000
C     1.491000000    -5.049000000    -1.759000000
H     1.859000000    -5.438000000    -2.711000000
H     1.612000000    -5.913000000    -1.102000000
C     2.462000000    -3.904000000    -1.364000000
C     2.742000000    -3.692000000     0.006000000
C     3.527000000    -2.587000000     0.400000000
H     3.789000000    -2.406000000     1.439000000
C     4.033000000    -1.760000000    -0.598000000
O     4.711000000    -0.614000000    -0.167000000
C     4.027000000     0.647000000    -0.256000000
H     2.974000000     0.337000000    -0.313000000
C     4.122000000     1.502000000     0.952000000
C     4.359000000     2.860000000     0.946000000
H     4.501000000     3.441000000     0.039000000
C     3.999000000     0.914000000     2.190000000
H     3.745000000    -0.139000000     2.281000000
C     4.002000000     1.622000000     3.343000000
O     3.691000000     1.064000000     4.592000000
C     4.118000000     3.033000000     3.296000000
H     4.017000000     3.641000000     4.192000000
C     4.316000000     3.642000000     2.111000000
O     4.592000000     5.058000000     2.135000000
C     4.141000000     5.827000000     1.056000000
C     2.758000000     5.959000000     0.893000000
H     2.163000000     5.422000000     1.627000000
C     5.048000000     6.542000000     0.242000000
H     6.125000000     6.419000000     0.328000000
C     4.543000000     7.389000000    -0.744000000
H     5.218000000     7.929000000    -1.402000000
C     3.170000000     7.505000000    -0.908000000
H     2.744000000     8.166000000    -1.658000000
C     2.292000000     6.797000000    -0.091000000
O     0.960000000     6.893000000    -0.303000000
C     0.128000000     5.909000000    -0.592000000
C    -1.045000000     5.701000000     0.208000000
H    -1.193000000     6.374000000     1.049000000
C    -1.988000000     4.773000000    -0.222000000
O    -3.106000000     4.619000000     0.519000000
C    -4.381000000     4.442000000     0.047000000
C    -4.995000000     3.230000000     0.332000000
H    -4.521000000     2.506000000     0.990000000
C    -4.943000000     5.374000000    -0.806000000
H    -4.539000000     6.368000000    -0.979000000
C    -6.205000000     5.060000000    -1.345000000
H    -6.659000000     5.817000000    -1.979000000
C    -6.755000000     3.805000000    -1.120000000
H    -7.755000000     3.564000000    -1.472000000
C    -6.243000000     2.955000000    -0.203000000
O    -6.953000000     1.801000000     0.132000000
C    -6.300000000     0.571000000     0.281000000
C    -6.615000000    -0.269000000     1.346000000
H    -7.442000000    -0.059000000     2.020000000
C    -5.917000000    -1.439000000     1.569000000
O    -6.144000000    -2.228000000     2.663000000
C    -5.269000000    -3.280000000     3.062000000
C    -4.145000000    -2.993000000     3.796000000
H    -3.883000000    -1.955000000     3.983000000
C    -5.663000000    -4.627000000     2.915000000
H    -6.602000000    -4.860000000     2.418000000
C    -4.923000000    -5.645000000     3.499000000
H    -5.183000000    -6.688000000     3.340000000
C    -3.794000000    -5.345000000     4.220000000
H    -3.213000000    -6.180000000     4.603000000
C    -3.416000000    -4.000000000     4.375000000
O    -2.292000000    -3.636000000     5.074000000
C    -0.994000000    -3.876000000     4.650000000
C     0.048000000    -3.606000000     5.505000000
H    -0.192000000    -3.318000000     6.525000000
C     1.388000000    -3.683000000     5.027000000
O     2.492000000    -3.443000000     5.850000000
C     3.416000000    -2.523000000     5.457000000
C     4.778000000    -2.873000000     5.521000000
H     5.116000000    -3.856000000     5.837000000
C     5.684000000    -1.937000000     5.107000000
H     6.727000000    -2.242000000     5.070000000
C     5.321000000    -0.635000000     4.765000000
H     6.111000000     0.029000000     4.426000000
C     4.009000000    -0.238000000     4.837000000
C     3.043000000    -1.224000000     5.055000000
H     1.990000000    -0.967000000     4.974000000
C    -1.565000000     0.267000000     1.617000000
H    -2.372000000    -0.344000000     2.014000000
C    -0.808000000    -0.308000000     0.603000000
H    -0.987000000    -1.331000000     0.284000000
C     0.141000000     0.515000000    -0.029000000
H     0.663000000     0.185000000    -0.876000000
C     0.478000000     1.747000000     0.482000000
H     1.261000000     2.285000000    -0.047000000
C    -0.273000000     2.280000000     1.521000000
H    -0.076000000     3.312000000     1.798000000
C    -1.338000000     1.531000000     2.050000000
C    -2.299000000     2.202000000     3.077000000
O    -1.815000000     3.110000000     3.690000000
O    -3.276000000     1.647000000     3.520000000
O     0.463000000     4.193000000     8.572000000
H     1.309000000     3.778000000     8.406000000
H     0.035000000     4.215000000     7.716000000
O    -2.270000000     8.033000000     3.007000000
H    -2.015000000     7.217000000     3.437000000
H    -3.192000000     8.147000000     3.238000000
O    -5.271000000    -0.739000000     7.402000000
H    -4.481000000    -0.719000000     6.861000000
H    -5.016000000    -0.302000000     8.214000000
O    -1.712000000     6.253000000     6.797000000
H    -1.725000000     6.187000000     7.752000000
H    -2.634000000     6.228000000     6.543000000
O    -6.534000000     5.905000000     2.498000000
H    -6.865000000     5.222000000     1.914000000
H    -5.766000000     5.513000000     2.914000000
O    -0.860000000     2.293000000     6.115000000
H    -1.657000000     2.578000000     6.561000000
H    -1.045000000     2.427000000     5.185000000
O    -1.876000000    -0.893000000     7.778000000
H    -2.292000000    -0.460000000     7.033000000
H    -0.958000000    -0.627000000     7.727000000
O    -8.481000000     0.038000000     4.624000000
H    -7.562000000     0.121000000     4.371000000
H    -8.638000000    -0.906000000     4.654000000
O    -4.774000000     8.204000000     4.180000000
H    -5.515000000     7.744000000     3.785000000
H    -5.175000000     8.844000000     4.769000000
O     1.637000000     5.975000000     4.556000000
H     1.022000000     5.341000000     4.186000000
H     1.463000000     6.785000000     4.077000000
O    -4.641000000     4.224000000     3.779000000
H    -3.832000000     4.036000000     3.303000000
H    -4.768000000     3.464000000     4.347000000
O    -3.209000000     0.247000000     5.748000000
H    -3.033000000     0.934000000     6.390000000
H    -2.880000000     0.602000000     4.922000000
O    -5.643000000     0.646000000     4.191000000
H    -4.774000000     0.927000000     3.905000000
H    -5.481000000     0.140000000     4.987000000
O     0.775000000     0.242000000     7.398000000
H     1.713000000     0.426000000     7.347000000
H     0.366000000     0.942000000     6.888000000
O     1.175000000     8.180000000     2.888000000
H     0.246000000     8.015000000     2.727000000
H     1.374000000     8.957000000     2.366000000
O    -3.299000000     2.490000000     7.491000000
H    -3.070000000     2.337000000     8.407000000
H    -4.010000000     3.130000000     7.525000000
O    -1.166000000     5.645000000     4.015000000
H    -1.448000000     4.795000000     3.677000000
H    -1.150000000     5.532000000     4.966000000
O    -5.582000000     4.263000000     7.801000000
H    -5.434000000     4.743000000     6.986000000
H    -5.382000000     4.895000000     8.491000000
O    -4.378000000     5.867000000     6.111000000
H    -4.556000000     5.351000000     5.324000000
H    -4.386000000     6.775000000     5.808000000
