215
-1484.63747
C    -0.730000000     5.494000000    -1.354000000
H    -1.666000000     5.199000000    -1.821000000
C     0.435000000     4.690000000    -1.573000000
C     1.547000000     5.018000000    -0.811000000
H     2.395000000     4.349000000    -0.927000000
C     0.519000000     3.514000000    -2.520000000
O    -0.419000000     3.638000000    -3.571000000
H     0.290000000     2.617000000    -1.926000000
O     1.867000000     3.466000000    -3.114000000
C     2.383000000     2.198000000    -3.344000000
C     3.434000000     1.830000000    -2.543000000
H     3.779000000     2.544000000    -1.800000000
C     3.761000000     0.522000000    -2.523000000
O     4.638000000     0.081000000    -1.538000000
C     3.293000000    -0.380000000    -3.470000000
C     3.863000000    -1.789000000    -3.506000000
H     3.894000000    -2.191000000    -4.521000000
C     3.080000000    -2.754000000    -2.607000000
C     1.921000000    -3.452000000    -3.042000000
H     1.616000000    -3.238000000    -4.063000000
H     4.941000000    -1.854000000    -3.339000000
C     2.358000000     0.035000000    -4.364000000
H     1.959000000    -0.622000000    -5.132000000
C     1.871000000     1.379000000    -4.349000000
C     0.766000000     1.747000000    -5.392000000
H     0.841000000     1.171000000    -6.317000000
H     0.894000000     2.785000000    -5.710000000
C    -0.581000000     1.518000000    -4.710000000
C    -1.228000000     0.307000000    -4.872000000
H    -0.948000000    -0.491000000    -5.555000000
C    -1.084000000     2.463000000    -3.901000000
C    -2.209000000     2.203000000    -3.193000000
H    -2.488000000     2.954000000    -2.459000000
C    -2.908000000     0.971000000    -3.323000000
O    -3.892000000     0.764000000    -2.420000000
C    -3.581000000    -0.053000000    -1.277000000
C    -4.083000000     0.543000000     0.052000000
C    -4.267000000    -0.327000000     1.125000000
H    -3.916000000    -1.346000000     0.982000000
C    -4.151000000     1.929000000     0.200000000
H    -4.033000000     2.613000000    -0.636000000
O    -4.166000000    -1.403000000    -1.582000000
H    -2.482000000    -0.059000000    -1.226000000
C    -2.466000000    -0.011000000    -4.223000000
C    -3.190000000    -1.342000000    -4.436000000
H    -2.906000000    -1.731000000    -5.416000000
H    -4.252000000    -1.143000000    -4.283000000
C    -2.795000000    -2.334000000    -3.401000000
C    -1.811000000    -3.244000000    -3.680000000
H    -1.437000000    -3.296000000    -4.699000000
C    -3.276000000    -2.329000000    -2.054000000
C    -2.980000000    -3.379000000    -1.179000000
H    -3.314000000    -3.390000000    -0.145000000
C    -1.995000000    -4.261000000    -1.470000000
O    -1.411000000    -5.052000000    -0.428000000
C    -0.389000000    -4.537000000     0.397000000
C    -0.699000000    -4.851000000     1.902000000
C    -1.986000000    -4.942000000     2.490000000
H    -2.871000000    -4.934000000     1.860000000
C     0.379000000    -4.747000000     2.791000000
H     1.367000000    -4.610000000     2.360000000
O     0.914000000    -5.038000000     0.018000000
H    -0.342000000    -3.458000000     0.191000000
C    -1.328000000    -4.128000000    -2.686000000
C     0.001000000    -4.965000000    -2.916000000
H     0.205000000    -4.994000000    -3.989000000
H    -0.165000000    -5.977000000    -2.539000000
C     1.170000000    -4.328000000    -2.282000000
C     1.547000000    -4.375000000    -0.940000000
C     2.708000000    -3.726000000    -0.438000000
H     2.909000000    -3.935000000     0.610000000
C     3.470000000    -2.893000000    -1.286000000
O     4.470000000    -2.162000000    -0.726000000
C     4.071000000    -0.793000000    -0.463000000
H     2.982000000    -0.895000000    -0.573000000
C     4.471000000    -0.237000000     0.912000000
C     5.026000000     1.009000000     1.083000000
H     5.423000000     1.461000000     0.178000000
C     3.988000000    -0.891000000     2.036000000
H     3.446000000    -1.831000000     1.976000000
C     4.092000000    -0.274000000     3.321000000
O     3.619000000    -0.934000000     4.448000000
C     4.597000000     1.039000000     3.437000000
H     4.706000000     1.482000000     4.423000000
C     5.082000000     1.697000000     2.284000000
O     5.767000000     2.870000000     2.359000000
C     5.438000000     3.904000000     1.489000000
C     4.128000000     4.364000000     1.616000000
H     3.412000000     3.915000000     2.300000000
C     6.356000000     4.451000000     0.631000000
H     7.315000000     3.946000000     0.538000000
C     6.044000000     5.575000000    -0.172000000
H     6.808000000     5.942000000    -0.852000000
C     4.866000000     6.193000000     0.043000000
H     4.489000000     7.071000000    -0.473000000
C     3.859000000     5.616000000     0.929000000
O     2.591000000     6.246000000     1.036000000
C     1.534000000     6.041000000     0.119000000
C     0.402000000     6.803000000     0.356000000
H     0.406000000     7.487000000     1.201000000
C    -0.749000000     6.494000000    -0.411000000
O    -1.835000000     7.115000000     0.023000000
C    -3.054000000     6.535000000     0.105000000
C    -3.269000000     5.362000000     0.819000000
H    -2.467000000     4.914000000     1.400000000
C    -4.091000000     7.134000000    -0.600000000
H    -3.895000000     8.014000000    -1.207000000
C    -5.359000000     6.581000000    -0.530000000
H    -6.186000000     7.001000000    -1.097000000
C    -5.587000000     5.463000000     0.285000000
H    -6.590000000     5.067000000     0.424000000
C    -4.528000000     4.774000000     0.945000000
O    -4.817000000     3.708000000     1.784000000
C    -4.427000000     2.406000000     1.505000000
C    -4.689000000     1.545000000     2.535000000
H    -5.051000000     1.891000000     3.500000000
C    -4.620000000     0.169000000     2.396000000
O    -4.857000000    -0.561000000     3.533000000
C    -5.165000000    -1.924000000     3.583000000
C    -4.126000000    -2.870000000     3.744000000
H    -3.099000000    -2.530000000     3.852000000
C    -6.524000000    -2.338000000     3.507000000
H    -7.263000000    -1.605000000     3.193000000
C    -6.776000000    -3.688000000     3.586000000
H    -7.831000000    -3.946000000     3.626000000
C    -5.762000000    -4.577000000     3.924000000
H    -6.062000000    -5.607000000     4.098000000
C    -4.447000000    -4.191000000     3.970000000
O    -3.494000000    -5.165000000     4.285000000
C    -2.176000000    -5.138000000     3.817000000
C    -1.064000000    -5.167000000     4.694000000
H    -1.237000000    -5.447000000     5.730000000
C     0.202000000    -5.010000000     4.148000000
O     1.216000000    -5.103000000     5.032000000
C     2.453000000    -4.450000000     4.788000000
C     3.585000000    -5.153000000     4.432000000
H     3.528000000    -6.238000000     4.386000000
C     4.699000000    -4.493000000     4.171000000
H     5.575000000    -5.110000000     3.986000000
C     4.748000000    -3.088000000     4.171000000
H     5.655000000    -2.529000000     3.956000000
C     3.580000000    -2.354000000     4.437000000
C     2.428000000    -3.066000000     4.806000000
H     1.483000000    -2.562000000     4.994000000
C     0.445000000    -0.544000000     2.267000000
H     0.643000000    -0.904000000     3.273000000
C     0.674000000    -1.262000000     1.107000000
H     1.151000000    -2.238000000     1.124000000
C     0.410000000    -0.707000000    -0.144000000
H     0.685000000    -1.275000000    -1.059000000
C    -0.235000000     0.498000000    -0.199000000
H    -0.444000000     0.937000000    -1.172000000
C    -0.607000000     1.186000000     0.980000000
H    -1.182000000     2.104000000     0.884000000
C    -0.193000000     0.728000000     2.194000000
C    -0.530000000     1.553000000     3.391000000
O    -1.016000000     2.669000000     3.320000000
O    -0.356000000     0.997000000     4.485000000
O     0.154000000     3.022000000     6.344000000
H    -0.111000000     2.511000000     5.579000000
H     1.069000000     3.247000000     6.175000000
O    -0.699000000     5.693000000     6.299000000
H    -0.836000000     5.562000000     5.361000000
H    -0.209000000     4.919000000     6.579000000
O     3.053000000     4.714000000     8.081000000
H     2.907000000     4.188000000     7.295000000
H     3.915000000     5.109000000     7.949000000
O    -1.100000000     8.170000000     4.507000000
H    -0.836000000     8.141000000     5.426000000
H    -1.929000000     7.691000000     4.480000000
O    -2.082000000     2.632000000     8.053000000
H    -1.259000000     2.965000000     7.694000000
H    -2.433000000     2.069000000     7.363000000
O    -2.842000000     0.926000000     5.981000000
H    -3.459000000     1.033000000     5.257000000
H    -1.995000000     0.791000000     5.556000000
O     0.770000000    -0.139000000     6.542000000
H     1.001000000     0.731000000     6.866000000
H     0.181000000     0.028000000     5.806000000
O    -4.739000000    -0.888000000     7.105000000
H    -4.093000000    -0.311000000     6.697000000
H    -4.832000000    -0.550000000     7.996000000
O    -3.435000000     6.700000000     4.300000000
H    -3.173000000     5.972000000     4.864000000
H    -4.379000000     6.586000000     4.186000000
O    -0.303000000     5.236000000     3.688000000
H    -0.537000000     4.331000000     3.481000000
H    -0.954000000     5.763000000     3.226000000
O     0.131000000     0.755000000    10.048000000
H    -0.158000000     1.617000000    10.349000000
H    -0.623000000     0.400000000     9.578000000
O    -3.161000000     3.815000000     4.323000000
H    -2.371000000     3.485000000     3.895000000
H    -3.874000000     3.315000000     3.926000000
O     4.017000000     0.529000000     7.198000000
H     3.435000000     0.395000000     7.946000000
H     3.620000000     0.021000000     6.491000000
O    -4.446000000     1.037000000     9.223000000
H    -4.996000000     1.397000000     9.918000000
H    -3.815000000     1.731000000     9.034000000
O     2.115000000     5.990000000     4.317000000
H     1.379000000     5.575000000     3.868000000
H     2.602000000     6.432000000     3.620000000
O     1.271000000    -2.710000000     7.768000000
H     1.335000000    -1.755000000     7.787000000
H     0.558000000    -2.889000000     7.156000000
O     2.861000000     3.441000000     5.600000000
H     2.736000000     4.100000000     4.917000000
H     3.405000000     2.770000000     5.189000000
O    -6.291000000     1.660000000     5.980000000
H    -5.710000000     0.964000000     6.287000000
H    -7.126000000     1.484000000     6.414000000
O    -3.622000000     4.981000000     6.949000000
H    -2.880000000     4.690000000     7.479000000
H    -3.838000000     4.226000000     6.403000000
