215
-1448.47538
C    -0.782000000     5.433000000    -0.884000000
H    -1.781000000     5.077000000    -1.119000000
C     0.399000000     4.813000000    -1.381000000
C     1.655000000     5.208000000    -0.913000000
H     2.539000000     4.760000000    -1.359000000
C     0.423000000     3.621000000    -2.345000000
O    -0.718000000     3.718000000    -3.226000000
H     0.275000000     2.755000000    -1.683000000
O     1.662000000     3.442000000    -3.098000000
C     2.061000000     2.171000000    -3.390000000
C     3.083000000     1.693000000    -2.555000000
H     3.483000000     2.363000000    -1.800000000
C     3.559000000     0.424000000    -2.796000000
O     4.488000000    -0.072000000    -1.977000000
C     3.066000000    -0.401000000    -3.810000000
C     3.517000000    -1.833000000    -3.958000000
H     3.280000000    -2.143000000    -4.977000000
C     2.866000000    -2.824000000    -2.981000000
C     1.658000000    -3.464000000    -3.355000000
H     1.366000000    -3.346000000    -4.395000000
H     4.609000000    -1.807000000    -3.963000000
C     2.063000000     0.095000000    -4.610000000
H     1.600000000    -0.481000000    -5.407000000
C     1.530000000     1.429000000    -4.403000000
C     0.330000000     1.922000000    -5.197000000
H     0.164000000     1.353000000    -6.114000000
H     0.485000000     2.929000000    -5.591000000
C    -0.938000000     1.639000000    -4.406000000
C    -1.693000000     0.462000000    -4.658000000
H    -1.381000000    -0.269000000    -5.400000000
C    -1.390000000     2.568000000    -3.449000000
C    -2.657000000     2.441000000    -2.945000000
H    -3.138000000     3.218000000    -2.357000000
C    -3.318000000     1.252000000    -3.136000000
O    -4.410000000     0.995000000    -2.333000000
C    -4.104000000     0.077000000    -1.259000000
C    -4.588000000     0.537000000     0.149000000
C    -5.117000000    -0.356000000     1.099000000
H    -5.345000000    -1.398000000     0.892000000
C    -4.346000000     1.869000000     0.518000000
H    -3.787000000     2.468000000    -0.197000000
O    -4.563000000    -1.263000000    -1.518000000
H    -3.015000000    -0.076000000    -1.224000000
C    -2.842000000     0.241000000    -4.007000000
C    -3.523000000    -1.158000000    -4.203000000
H    -3.501000000    -1.473000000    -5.248000000
H    -4.589000000    -1.008000000    -4.021000000
C    -3.015000000    -2.156000000    -3.230000000
C    -1.969000000    -3.098000000    -3.470000000
H    -1.411000000    -3.130000000    -4.403000000
C    -3.654000000    -2.229000000    -1.990000000
C    -3.248000000    -3.165000000    -0.997000000
H    -3.666000000    -3.116000000     0.005000000
C    -2.179000000    -3.993000000    -1.199000000
O    -1.685000000    -4.766000000    -0.142000000
C    -0.442000000    -4.310000000     0.452000000
C    -0.453000000    -4.375000000     1.958000000
C    -1.688000000    -4.206000000     2.628000000
H    -2.639000000    -4.360000000     2.125000000
C     0.721000000    -4.341000000     2.725000000
H     1.670000000    -4.365000000     2.197000000
O     0.693000000    -5.021000000    -0.199000000
H    -0.405000000    -3.229000000     0.250000000
C    -1.579000000    -3.988000000    -2.459000000
C    -0.311000000    -4.881000000    -2.766000000
H    -0.218000000    -5.025000000    -3.844000000
H    -0.513000000    -5.828000000    -2.262000000
C     0.983000000    -4.220000000    -2.415000000
C     1.498000000    -4.486000000    -1.119000000
C     2.647000000    -3.774000000    -0.733000000
H     3.002000000    -3.839000000     0.292000000
C     3.289000000    -2.934000000    -1.626000000
O     4.343000000    -2.209000000    -1.115000000
C     4.095000000    -0.840000000    -0.842000000
H     3.002000000    -0.817000000    -0.715000000
C     4.674000000    -0.368000000     0.558000000
C     4.623000000     1.035000000     0.833000000
H     4.272000000     1.744000000     0.089000000
C     5.057000000    -1.317000000     1.551000000
H     4.907000000    -2.390000000     1.471000000
C     5.362000000    -0.811000000     2.807000000
O     5.632000000    -1.615000000     3.909000000
C     5.210000000     0.514000000     3.096000000
H     5.564000000     0.900000000     4.048000000
C     4.927000000     1.396000000     2.120000000
O     4.781000000     2.728000000     2.504000000
C     4.893000000     3.805000000     1.739000000
C     3.850000000     4.644000000     1.610000000
H     2.962000000     4.278000000     2.120000000
C     6.032000000     3.966000000     0.879000000
H     6.845000000     3.247000000     0.940000000
C     6.151000000     5.012000000    -0.011000000
H     7.046000000     5.204000000    -0.597000000
C     5.103000000     5.949000000    -0.080000000
H     5.067000000     6.794000000    -0.763000000
C     3.937000000     5.719000000     0.712000000
O     2.902000000     6.685000000     0.556000000
C     1.720000000     6.332000000    -0.035000000
C     0.592000000     7.001000000     0.349000000
H     0.585000000     7.772000000     1.115000000
C    -0.664000000     6.511000000    -0.057000000
O    -1.796000000     7.158000000     0.463000000
C    -2.958000000     6.456000000     0.499000000
C    -3.048000000     5.331000000     1.249000000
H    -2.216000000     4.911000000     1.809000000
C    -4.013000000     6.961000000    -0.231000000
H    -3.877000000     7.878000000    -0.800000000
C    -5.203000000     6.238000000    -0.196000000
H    -6.046000000     6.671000000    -0.728000000
C    -5.375000000     5.101000000     0.610000000
H    -6.345000000     4.632000000     0.756000000
C    -4.278000000     4.636000000     1.334000000
O    -4.485000000     3.590000000     2.171000000
C    -4.772000000     2.318000000     1.772000000
C    -5.272000000     1.448000000     2.682000000
H    -5.567000000     1.805000000     3.665000000
C    -5.400000000     0.061000000     2.444000000
O    -5.991000000    -0.754000000     3.379000000
C    -5.675000000    -2.065000000     3.530000000
C    -4.466000000    -2.396000000     4.105000000
H    -3.812000000    -1.592000000     4.434000000
C    -6.543000000    -3.058000000     3.063000000
H    -7.529000000    -2.769000000     2.708000000
C    -6.103000000    -4.362000000     3.084000000
H    -6.687000000    -5.187000000     2.684000000
C    -4.880000000    -4.700000000     3.578000000
H    -4.686000000    -5.768000000     3.640000000
C    -4.109000000    -3.744000000     4.252000000
O    -2.852000000    -4.050000000     4.797000000
C    -1.668000000    -4.135000000     4.071000000
C    -0.507000000    -4.215000000     4.780000000
H    -0.549000000    -4.260000000     5.865000000
C     0.725000000    -4.288000000     4.182000000
O     1.916000000    -4.280000000     4.978000000
C     3.171000000    -4.215000000     4.483000000
C     3.912000000    -5.391000000     4.413000000
H     3.465000000    -6.331000000     4.725000000
C     5.301000000    -5.276000000     4.073000000
H     5.886000000    -6.191000000     4.131000000
C     5.896000000    -4.008000000     3.807000000
H     6.951000000    -3.832000000     3.615000000
C     5.133000000    -2.852000000     3.909000000
C     3.771000000    -2.970000000     4.249000000
H     3.093000000    -2.127000000     4.353000000
C     1.269000000     0.069000000     2.123000000
H     1.860000000    -0.028000000     3.029000000
C     1.261000000    -0.918000000     1.197000000
H     1.749000000    -1.867000000     1.403000000
C     0.536000000    -0.780000000     0.055000000
H     0.440000000    -1.589000000    -0.717000000
C    -0.160000000     0.401000000    -0.191000000
H    -0.832000000     0.627000000    -1.015000000
C    -0.013000000     1.522000000     0.730000000
H    -0.583000000     2.439000000     0.603000000
C     0.660000000     1.287000000     1.935000000
C     0.761000000     2.396000000     2.960000000
O     0.173000000     3.408000000     2.718000000
O     1.277000000     2.287000000     4.054000000
O    -2.056000000     0.432000000     4.546000000
H    -1.275000000     0.418000000     5.099000000
H    -1.760000000     0.088000000     3.703000000
O     2.685000000     3.550000000     5.615000000
H     2.254000000     3.023000000     4.942000000
H     3.582000000     3.653000000     5.300000000
O    -1.348000000    -2.132000000     6.760000000
H    -0.520000000    -1.708000000     6.533000000
H    -2.003000000    -1.673000000     6.235000000
O    -1.854000000     6.817000000     6.573000000
H    -2.707000000     7.008000000     6.183000000
H    -1.259000000     6.750000000     5.826000000
O     3.195000000     3.778000000     8.406000000
H     3.119000000     4.733000000     8.419000000
H     4.026000000     3.611000000     7.960000000
O     5.390000000     3.738000000     5.125000000
H     5.813000000     3.533000000     4.291000000
H     6.024000000     4.288000000     5.586000000
O    -4.417000000     3.721000000     5.661000000
H    -4.532000000     2.771000000     5.641000000
H    -3.584000000     3.871000000     5.214000000
O    -0.239000000     3.913000000     6.371000000
H    -0.767000000     3.709000000     5.599000000
H     0.648000000     3.647000000     6.132000000
O     3.400000000    -0.166000000     5.961000000
H     3.395000000     0.719000000     5.598000000
H     4.327000000    -0.406000000     5.995000000
O     2.953000000     7.743000000     3.902000000
H     2.424000000     6.952000000     4.005000000
H     3.253000000     7.948000000     4.788000000
O    -2.978000000     7.972000000     3.316000000
H    -2.133000000     7.551000000     3.470000000
H    -2.881000000     8.400000000     2.465000000
O    -2.612000000     3.474000000     8.085000000
H    -3.451000000     3.653000000     7.662000000
H    -1.958000000     3.800000000     7.467000000
O    -0.493000000     7.405000000     4.020000000
H    -0.164000000     8.304000000     4.011000000
H     0.274000000     6.867000000     3.824000000
O    -0.025000000     5.602000000     9.052000000
H    -0.129000000     5.433000000     8.116000000
H    -0.622000000     6.328000000     9.232000000
O    -2.131000000    -0.647000000     1.843000000
H    -2.662000000    -0.712000000     1.050000000
H    -1.310000000    -0.251000000     1.550000000
O     1.392000000     5.313000000     4.059000000
H     1.071000000     4.738000000     3.365000000
H     1.766000000     4.719000000     4.710000000
O     0.673000000     0.373000000     5.784000000
H     0.911000000     1.143000000     5.268000000
H     1.470000000     0.153000000     6.267000000
O    -4.097000000     1.004000000     6.254000000
H    -3.837000000     0.586000000     7.074000000
H    -3.336000000     0.904000000     5.682000000
O    -2.117000000     3.453000000     4.226000000
H    -2.366000000     2.541000000     4.074000000
H    -1.354000000     3.590000000     3.664000000
