215
-1455.81347
C    -0.463000000     5.077000000     0.260000000
H    -1.421000000     4.680000000    -0.065000000
C     0.734000000     4.791000000    -0.448000000
C     1.971000000     4.980000000     0.177000000
H     2.959000000     4.859000000    -0.261000000
C     0.641000000     3.944000000    -1.729000000
O    -0.511000000     4.360000000    -2.491000000
H     0.573000000     2.890000000    -1.423000000
O     1.865000000     4.042000000    -2.462000000
C     2.404000000     2.925000000    -2.958000000
C     3.338000000     2.326000000    -2.187000000
H     3.739000000     2.875000000    -1.339000000
C     3.761000000     1.085000000    -2.478000000
O     4.666000000     0.532000000    -1.618000000
C     3.272000000     0.409000000    -3.670000000
C     3.646000000    -1.057000000    -3.976000000
H     3.463000000    -1.223000000    -5.039000000
C     2.863000000    -2.129000000    -3.251000000
C     1.726000000    -2.723000000    -3.840000000
H     1.328000000    -2.308000000    -4.762000000
H     4.724000000    -1.172000000    -3.846000000
C     2.213000000     1.059000000    -4.312000000
H     1.737000000     0.541000000    -5.140000000
C     1.774000000     2.320000000    -4.041000000
C     0.589000000     2.985000000    -4.799000000
H     0.619000000     2.660000000    -5.841000000
H     0.856000000     4.041000000    -4.883000000
C    -0.744000000     2.637000000    -4.222000000
C    -1.502000000     1.496000000    -4.602000000
H    -1.078000000     0.822000000    -5.341000000
C    -1.174000000     3.368000000    -3.137000000
C    -2.357000000     3.052000000    -2.515000000
H    -2.647000000     3.706000000    -1.696000000
C    -3.087000000     1.807000000    -2.845000000
O    -4.204000000     1.486000000    -2.106000000
C    -4.189000000     0.391000000    -1.172000000
C    -5.004000000     0.613000000     0.117000000
C    -5.219000000    -0.433000000     1.031000000
H    -4.969000000    -1.463000000     0.791000000
C    -5.154000000     1.929000000     0.571000000
H    -4.817000000     2.720000000    -0.095000000
O    -4.596000000    -0.888000000    -1.886000000
H    -3.125000000     0.313000000    -0.904000000
C    -2.606000000     1.043000000    -3.954000000
C    -3.313000000    -0.170000000    -4.524000000
H    -3.078000000    -0.276000000    -5.585000000
H    -4.350000000     0.157000000    -4.416000000
C    -3.060000000    -1.394000000    -3.649000000
C    -1.994000000    -2.166000000    -3.941000000
H    -1.410000000    -1.869000000    -4.808000000
C    -3.658000000    -1.721000000    -2.432000000
C    -3.306000000    -2.791000000    -1.612000000
H    -3.775000000    -2.970000000    -0.648000000
C    -2.187000000    -3.550000000    -1.959000000
O    -1.692000000    -4.518000000    -1.076000000
C    -0.454000000    -4.187000000    -0.412000000
C    -0.612000000    -4.654000000     1.037000000
C    -1.849000000    -4.667000000     1.667000000
H    -2.721000000    -4.305000000     1.129000000
C     0.557000000    -5.198000000     1.625000000
H     1.503000000    -5.238000000     1.091000000
O     0.678000000    -4.886000000    -0.998000000
H    -0.302000000    -3.099000000    -0.349000000
C    -1.500000000    -3.252000000    -3.147000000
C    -0.352000000    -4.128000000    -3.650000000
H    -0.398000000    -4.158000000    -4.741000000
H    -0.409000000    -5.183000000    -3.378000000
C     0.977000000    -3.673000000    -3.081000000
C     1.405000000    -4.048000000    -1.743000000
C     2.529000000    -3.412000000    -1.198000000
H     2.872000000    -3.843000000    -0.261000000
C     3.247000000    -2.441000000    -1.905000000
O     4.299000000    -1.801000000    -1.387000000
C     4.106000000    -0.526000000    -0.817000000
H     3.020000000    -0.367000000    -0.882000000
C     4.564000000    -0.413000000     0.577000000
C     5.027000000     0.788000000     1.132000000
H     5.074000000     1.634000000     0.451000000
C     4.460000000    -1.420000000     1.501000000
H     4.035000000    -2.373000000     1.198000000
C     4.781000000    -1.333000000     2.836000000
O     4.362000000    -2.307000000     3.734000000
C     5.439000000    -0.205000000     3.308000000
H     5.879000000    -0.113000000     4.298000000
C     5.619000000     0.898000000     2.419000000
O     6.287000000     2.024000000     2.764000000
C     5.940000000     3.322000000     2.306000000
C     4.702000000     3.845000000     2.628000000
H     3.962000000     3.301000000     3.209000000
C     6.826000000     4.059000000     1.556000000
H     7.745000000     3.527000000     1.324000000
C     6.449000000     5.256000000     1.004000000
H     7.190000000     5.800000000     0.424000000
C     5.211000000     5.733000000     1.237000000
H     4.953000000     6.726000000     0.878000000
C     4.284000000     5.040000000     2.038000000
O     3.045000000     5.567000000     2.332000000
C     1.956000000     5.554000000     1.476000000
C     0.794000000     5.846000000     2.157000000
H     0.834000000     6.203000000     3.183000000
C    -0.430000000     5.442000000     1.589000000
O    -1.551000000     5.657000000     2.342000000
C    -2.875000000     5.508000000     1.823000000
C    -3.698000000     4.476000000     2.320000000
H    -3.194000000     3.711000000     2.904000000
C    -3.389000000     6.495000000     1.011000000
H    -2.775000000     7.337000000     0.706000000
C    -4.727000000     6.457000000     0.691000000
H    -5.112000000     7.301000000     0.124000000
C    -5.605000000     5.497000000     1.194000000
H    -6.661000000     5.473000000     0.941000000
C    -5.055000000     4.515000000     1.994000000
O    -5.875000000     3.490000000     2.308000000
C    -5.764000000     2.235000000     1.756000000
C    -5.985000000     1.195000000     2.572000000
H    -6.278000000     1.431000000     3.592000000
C    -5.728000000    -0.118000000     2.259000000
O    -5.888000000    -1.017000000     3.286000000
C    -5.695000000    -2.390000000     3.109000000
C    -4.491000000    -2.954000000     3.468000000
H    -3.721000000    -2.278000000     3.833000000
C    -6.673000000    -3.224000000     2.575000000
H    -7.626000000    -2.831000000     2.228000000
C    -6.437000000    -4.598000000     2.448000000
H    -7.230000000    -5.228000000     2.054000000
C    -5.210000000    -5.144000000     2.821000000
H    -5.015000000    -6.213000000     2.836000000
C    -4.225000000    -4.302000000     3.295000000
O    -3.038000000    -4.887000000     3.746000000
C    -1.885000000    -4.976000000     2.985000000
C    -0.778000000    -5.491000000     3.609000000
H    -0.877000000    -5.703000000     4.671000000
C     0.436000000    -5.706000000     2.951000000
O     1.508000000    -6.183000000     3.655000000
C     2.724000000    -5.562000000     3.601000000
C     3.734000000    -6.354000000     2.982000000
H     3.500000000    -7.315000000     2.530000000
C     4.900000000    -5.729000000     2.588000000
H     5.646000000    -6.242000000     1.986000000
C     5.105000000    -4.400000000     2.826000000
H     6.038000000    -3.872000000     2.647000000
C     4.105000000    -3.662000000     3.450000000
C     2.927000000    -4.247000000     3.832000000
H     2.138000000    -3.643000000     4.272000000
C     1.498000000    -0.090000000     1.861000000
H     2.088000000    -0.760000000     2.481000000
C     0.949000000    -0.613000000     0.699000000
H     1.297000000    -1.598000000     0.399000000
C     0.055000000     0.108000000    -0.119000000
H    -0.284000000    -0.368000000    -1.043000000
C    -0.406000000     1.313000000     0.328000000
H    -1.267000000     1.673000000    -0.228000000
C     0.142000000     1.923000000     1.518000000
H    -0.343000000     2.835000000     1.855000000
C     1.124000000     1.206000000     2.246000000
C     1.726000000     1.783000000     3.509000000
O     1.354000000     2.839000000     3.944000000
O     2.630000000     1.248000000     4.144000000
O    -1.963000000    -0.948000000     2.001000000
H    -1.144000000    -1.232000000     2.409000000
H    -1.692000000    -0.537000000     1.181000000
O     1.557000000    -2.210000000     6.115000000
H     1.066000000    -2.899000000     6.563000000
H     1.281000000    -1.401000000     6.544000000
O     5.304000000     5.393000000     6.341000000
H     4.746000000     4.738000000     5.922000000
H     5.323000000     5.138000000     7.263000000
O     3.923000000     2.919000000     5.957000000
H     3.218000000     2.896000000     5.310000000
H     4.473000000     2.167000000     5.738000000
O     0.632000000    -0.298000000     9.184000000
H     0.576000000     0.339000000     8.472000000
H     1.531000000    -0.624000000     9.144000000
O    -1.620000000    -0.682000000     6.004000000
H    -1.685000000    -1.494000000     5.502000000
H    -0.680000000    -0.536000000     6.103000000
O    -0.208000000     2.398000000     7.768000000
H    -0.879000000     2.394000000     8.451000000
H    -0.660000000     2.724000000     6.990000000
O     3.817000000    -0.322000000     6.337000000
H     3.578000000    -1.249000000     6.317000000
H     3.396000000     0.051000000     5.563000000
O     0.088000000     7.347000000     5.340000000
H     0.422000000     8.020000000     4.747000000
H     0.836000000     6.769000000     5.492000000
O    -1.587000000     5.046000000     6.090000000
H    -0.962000000     5.723000000     5.832000000
H    -1.367000000     4.294000000     5.540000000
O     0.735000000     0.439000000     6.129000000
H     0.513000000     1.310000000     6.456000000
H     1.469000000     0.587000000     5.533000000
O    -5.011000000     2.568000000     5.517000000
H    -4.976000000     2.326000000     6.443000000
H    -4.315000000     2.053000000     5.108000000
O     2.388000000     3.192000000     8.719000000
H     1.661000000     2.786000000     8.248000000
H     3.038000000     3.380000000     8.042000000
O    -3.943000000     0.837000000     7.355000000
H    -3.728000000     0.841000000     8.287000000
H    -3.203000000     0.393000000     6.940000000
O    -3.278000000     0.772000000     4.248000000
H    -3.185000000     0.249000000     3.451000000
H    -2.709000000     0.340000000     4.885000000
O     1.707000000     5.141000000     5.204000000
H     1.408000000     4.338000000     4.777000000
H     2.427000000     4.858000000     5.767000000
O     5.374000000     0.426000000     8.688000000
H     6.042000000    -0.257000000     8.634000000
H     4.913000000     0.377000000     7.850000000
O    -0.237000000    -2.367000000     3.693000000
H     0.442000000    -2.502000000     4.353000000
H    -0.975000000    -2.894000000     3.997000000
O    -1.264000000     2.762000000     4.978000000
H    -1.761000000     2.038000000     4.597000000
H    -0.475000000     2.821000000     4.441000000
