215
-1435.79522
C    -1.286000000     4.908000000     0.472000000
H    -2.173000000     4.584000000    -0.067000000
C    -0.090000000     4.885000000    -0.199000000
C     1.068000000     5.217000000     0.562000000
H     2.079000000     5.014000000     0.218000000
C    -0.006000000     4.055000000    -1.522000000
O    -1.133000000     4.263000000    -2.496000000
H    -0.142000000     3.031000000    -1.144000000
O     1.174000000     4.228000000    -2.266000000
C     1.930000000     3.144000000    -2.640000000
C     2.893000000     2.577000000    -1.766000000
H     3.077000000     3.068000000    -0.813000000
C     3.527000000     1.398000000    -2.100000000
O     4.545000000     0.974000000    -1.292000000
C     3.247000000     0.791000000    -3.339000000
C     3.948000000    -0.505000000    -3.758000000
H     3.912000000    -0.492000000    -4.849000000
C     3.358000000    -1.779000000    -3.131000000
C     2.316000000    -2.448000000    -3.762000000
H     1.910000000    -2.113000000    -4.713000000
H     4.997000000    -0.380000000    -3.480000000
C     2.234000000     1.308000000    -4.171000000
H     1.943000000     0.871000000    -5.123000000
C     1.638000000     2.522000000    -3.847000000
C     0.524000000     3.111000000    -4.704000000
H     0.678000000     2.792000000    -5.737000000
H     0.567000000     4.198000000    -4.613000000
C    -0.784000000     2.586000000    -4.233000000
C    -1.333000000     1.319000000    -4.786000000
H    -0.845000000     0.878000000    -5.652000000
C    -1.515000000     3.157000000    -3.174000000
C    -2.675000000     2.579000000    -2.676000000
H    -3.113000000     3.022000000    -1.786000000
C    -3.080000000     1.389000000    -3.196000000
O    -4.126000000     0.924000000    -2.419000000
C    -3.814000000    -0.227000000    -1.518000000
C    -4.562000000    -0.119000000    -0.228000000
C    -5.170000000    -1.166000000     0.453000000
H    -5.051000000    -2.228000000     0.257000000
C    -4.883000000     1.156000000     0.213000000
H    -4.464000000     2.027000000    -0.283000000
O    -4.103000000    -1.465000000    -2.166000000
H    -2.738000000    -0.135000000    -1.309000000
C    -2.464000000     0.723000000    -4.227000000
C    -2.986000000    -0.644000000    -4.637000000
H    -2.691000000    -0.620000000    -5.688000000
H    -4.076000000    -0.638000000    -4.571000000
C    -2.430000000    -1.859000000    -3.818000000
C    -1.239000000    -2.502000000    -4.222000000
H    -0.569000000    -2.152000000    -5.003000000
C    -3.012000000    -2.172000000    -2.575000000
C    -2.462000000    -3.173000000    -1.795000000
H    -2.948000000    -3.471000000    -0.869000000
C    -1.377000000    -3.869000000    -2.194000000
O    -0.882000000    -4.849000000    -1.364000000
C     0.187000000    -4.455000000    -0.488000000
C     0.054000000    -4.849000000     1.029000000
C    -1.277000000    -4.893000000     1.539000000
H    -2.165000000    -4.922000000     0.913000000
C     1.088000000    -4.904000000     1.966000000
H     2.119000000    -5.064000000     1.660000000
O     1.535000000    -4.803000000    -1.055000000
H     0.039000000    -3.367000000    -0.416000000
C    -0.723000000    -3.514000000    -3.412000000
C     0.542000000    -4.178000000    -3.805000000
H     0.462000000    -4.157000000    -4.894000000
H     0.527000000    -5.216000000    -3.466000000
C     1.713000000    -3.470000000    -3.161000000
C     2.149000000    -3.847000000    -1.833000000
C     3.270000000    -3.276000000    -1.259000000
H     3.664000000    -3.554000000    -0.286000000
C     3.839000000    -2.175000000    -1.860000000
O     4.790000000    -1.434000000    -1.203000000
C     4.224000000    -0.252000000    -0.519000000
H     3.132000000    -0.381000000    -0.495000000
C     4.593000000     0.050000000     0.943000000
C     4.755000000     1.369000000     1.409000000
H     4.693000000     2.222000000     0.739000000
C     4.703000000    -1.013000000     1.828000000
H     4.424000000    -2.016000000     1.515000000
C     5.249000000    -0.815000000     3.096000000
O     5.419000000    -1.814000000     4.019000000
C     5.393000000     0.471000000     3.526000000
H     5.713000000     0.667000000     4.547000000
C     5.153000000     1.593000000     2.690000000
O     5.330000000     2.838000000     3.263000000
C     5.051000000     4.069000000     2.663000000
C     3.714000000     4.459000000     2.887000000
H     3.010000000     3.758000000     3.326000000
C     5.917000000     4.832000000     1.920000000
H     6.918000000     4.492000000     1.667000000
C     5.593000000     6.142000000     1.614000000
H     6.328000000     6.713000000     1.053000000
C     4.282000000     6.596000000     1.853000000
H     4.070000000     7.653000000     1.715000000
C     3.347000000     5.766000000     2.418000000
O     2.030000000     6.163000000     2.545000000
C     0.967000000     5.844000000     1.754000000
C    -0.307000000     6.063000000     2.282000000
H    -0.468000000     6.648000000     3.184000000
C    -1.418000000     5.592000000     1.646000000
O    -2.615000000     5.899000000     2.287000000
C    -3.826000000     5.498000000     1.756000000
C    -4.210000000     4.170000000     1.894000000
H    -3.546000000     3.508000000     2.445000000
C    -4.704000000     6.412000000     1.180000000
H    -4.312000000     7.425000000     1.136000000
C    -5.929000000     6.027000000     0.632000000
H    -6.650000000     6.748000000     0.256000000
C    -6.393000000     4.758000000     0.859000000
H    -7.407000000     4.542000000     0.532000000
C    -5.499000000     3.789000000     1.444000000
O    -6.142000000     2.563000000     1.722000000
C    -5.763000000     1.352000000     1.259000000
C    -6.354000000     0.263000000     1.951000000
H    -7.072000000     0.552000000     2.713000000
C    -6.042000000    -1.026000000     1.563000000
O    -6.451000000    -2.153000000     2.320000000
C    -5.828000000    -3.381000000     2.256000000
C    -4.579000000    -3.527000000     2.848000000
H    -4.059000000    -2.669000000     3.267000000
C    -6.450000000    -4.491000000     1.684000000
H    -7.485000000    -4.387000000     1.371000000
C    -5.797000000    -5.677000000     1.691000000
H    -6.280000000    -6.581000000     1.328000000
C    -4.535000000    -5.825000000     2.267000000
H    -3.944000000    -6.728000000     2.135000000
C    -3.900000000    -4.730000000     2.845000000
O    -2.707000000    -4.964000000     3.550000000
C    -1.415000000    -4.839000000     2.954000000
C    -0.388000000    -4.860000000     3.819000000
H    -0.552000000    -4.854000000     4.894000000
C     0.888000000    -4.899000000     3.361000000
O     1.968000000    -5.059000000     4.224000000
C     3.237000000    -4.787000000     3.796000000
C     4.063000000    -5.717000000     3.175000000
H     3.747000000    -6.753000000     3.086000000
C     5.374000000    -5.309000000     2.888000000
H     6.100000000    -6.056000000     2.576000000
C     5.848000000    -4.068000000     3.175000000
H     6.884000000    -3.856000000     2.923000000
C     4.978000000    -3.114000000     3.742000000
C     3.709000000    -3.530000000     4.154000000
H     3.049000000    -2.940000000     4.785000000
C     1.611000000    -0.697000000     2.635000000
H     2.148000000    -1.300000000     3.363000000
C     1.191000000    -1.285000000     1.438000000
H     1.574000000    -2.252000000     1.122000000
C     0.481000000    -0.531000000     0.514000000
H     0.152000000    -1.033000000    -0.339000000
C     0.106000000     0.744000000     0.811000000
H    -0.484000000     1.276000000     0.070000000
C     0.555000000     1.379000000     1.931000000
H     0.374000000     2.443000000     2.067000000
C     1.291000000     0.665000000     2.906000000
C     1.418000000     1.232000000     4.240000000
O     1.084000000     2.394000000     4.461000000
O     1.682000000     0.523000000     5.211000000
O    -2.534000000     0.648000000     3.667000000
H    -2.304000000     0.459000000     2.757000000
H    -2.059000000    -0.010000000     4.175000000
O     1.119000000    -1.139000000     8.441000000
H     1.957000000    -1.382000000     8.049000000
H     1.353000000    -0.568000000     9.173000000
O     1.706000000     6.029000000     5.625000000
H     2.207000000     5.255000000     5.881000000
H     2.144000000     6.348000000     4.836000000
O     3.709000000     0.744000000     6.863000000
H     3.858000000    -0.176000000     7.083000000
H     2.930000000     0.735000000     6.307000000
O     3.058000000     3.849000000     9.032000000
H     2.745000000     3.559000000     8.175000000
H     2.982000000     4.803000000     9.004000000
O    -2.775000000     2.619000000     7.897000000
H    -2.023000000     2.090000000     7.630000000
H    -3.416000000     1.983000000     8.213000000
O    -3.480000000     0.031000000     7.283000000
H    -3.098000000    -0.085000000     6.413000000
H    -4.138000000    -0.662000000     7.350000000
O    -1.571000000    -1.562000000     8.737000000
H    -0.686000000    -1.399000000     8.411000000
H    -2.138000000    -1.397000000     7.984000000
O     4.947000000     1.767000000     9.007000000
H     4.544000000     2.635000000     8.985000000
H     4.605000000     1.325000000     8.230000000
O    -0.818000000     5.547000000     6.009000000
H    -1.177000000     4.818000000     5.502000000
H     0.130000000     5.452000000     5.927000000
O    -1.665000000     3.233000000     4.649000000
H    -0.730000000     3.251000000     4.444000000
H    -1.987000000     2.435000000     4.230000000
O    -0.140000000     1.615000000     6.783000000
H     0.632000000     1.185000000     6.415000000
H    -0.493000000     2.131000000     6.058000000
O     5.886000000     4.754000000     5.499000000
H     5.588000000     4.127000000     4.840000000
H     5.749000000     5.610000000     5.093000000
O     3.887000000    -1.758000000     7.761000000
H     3.866000000    -2.663000000     7.450000000
H     4.115000000    -1.828000000     8.688000000
O     2.844000000     3.647000000     6.303000000
H     2.169000000     3.369000000     5.683000000
H     3.456000000     2.912000000     6.337000000
O    -0.477000000     1.938000000     9.670000000
H    -0.225000000     2.058000000     8.755000000
H     0.032000000     1.182000000     9.962000000
O    -0.739000000    -1.004000000     4.982000000
H    -0.155000000    -1.105000000     4.231000000
H    -0.166000000    -0.723000000     5.695000000
O    -4.673000000     1.710000000     5.230000000
H    -4.166000000     1.256000000     4.557000000
H    -4.083000000     1.757000000     5.983000000
O    -3.111000000    -2.824000000     6.205000000
H    -2.658000000    -2.437000000     5.455000000
H    -4.004000000    -2.484000000     6.146000000
