215
-1447.83116
C    -0.642000000     5.440000000    -0.056000000
H    -1.487000000     5.480000000    -0.737000000
C     0.558000000     4.827000000    -0.445000000
C     1.626000000     4.735000000     0.449000000
H     2.542000000     4.301000000     0.056000000
C     0.711000000     3.961000000    -1.707000000
O    -0.260000000     4.378000000    -2.615000000
H     0.632000000     2.926000000    -1.342000000
O     1.982000000     4.152000000    -2.382000000
C     2.509000000     2.998000000    -2.973000000
C     3.534000000     2.339000000    -2.246000000
H     3.936000000     2.702000000    -1.303000000
C     3.912000000     1.063000000    -2.587000000
O     4.718000000     0.361000000    -1.681000000
C     3.330000000     0.446000000    -3.664000000
C     3.713000000    -0.943000000    -4.084000000
H     3.392000000    -1.035000000    -5.124000000
C     2.967000000    -2.034000000    -3.288000000
C     1.815000000    -2.662000000    -3.876000000
H     1.449000000    -2.308000000    -4.837000000
H     4.803000000    -0.995000000    -4.051000000
C     2.428000000     1.111000000    -4.461000000
H     2.034000000     0.570000000    -5.317000000
C     1.938000000     2.364000000    -4.065000000
C     0.799000000     2.933000000    -4.836000000
H     0.920000000     2.426000000    -5.795000000
H     0.931000000     3.993000000    -5.066000000
C    -0.532000000     2.618000000    -4.163000000
C    -1.125000000     1.440000000    -4.502000000
H    -0.687000000     0.832000000    -5.289000000
C    -0.959000000     3.332000000    -3.031000000
C    -2.102000000     3.029000000    -2.429000000
H    -2.421000000     3.585000000    -1.551000000
C    -2.829000000     1.899000000    -2.850000000
O    -3.941000000     1.494000000    -2.229000000
C    -3.876000000     0.365000000    -1.329000000
C    -4.647000000     0.575000000     0.024000000
C    -5.334000000    -0.533000000     0.635000000
H    -5.361000000    -1.500000000     0.139000000
C    -4.370000000     1.739000000     0.763000000
H    -3.802000000     2.555000000     0.325000000
O    -4.346000000    -0.794000000    -1.957000000
H    -2.831000000     0.249000000    -1.007000000
C    -2.296000000     1.059000000    -3.817000000
C    -2.984000000    -0.189000000    -4.404000000
H    -2.781000000    -0.380000000    -5.460000000
H    -4.064000000    -0.030000000    -4.374000000
C    -2.745000000    -1.461000000    -3.741000000
C    -1.759000000    -2.319000000    -4.213000000
H    -1.182000000    -2.129000000    -5.114000000
C    -3.402000000    -1.713000000    -2.491000000
C    -3.078000000    -2.852000000    -1.772000000
H    -3.443000000    -2.978000000    -0.756000000
C    -2.010000000    -3.653000000    -2.197000000
O    -1.565000000    -4.497000000    -1.266000000
C    -0.421000000    -4.087000000    -0.498000000
C    -0.628000000    -4.454000000     0.951000000
C    -1.914000000    -4.577000000     1.499000000
H    -2.712000000    -4.603000000     0.762000000
C     0.425000000    -4.412000000     1.893000000
H     1.425000000    -4.157000000     1.551000000
O     0.775000000    -4.710000000    -0.999000000
H    -0.447000000    -2.988000000    -0.538000000
C    -1.343000000    -3.365000000    -3.419000000
C    -0.100000000    -4.186000000    -3.802000000
H    -0.026000000    -4.293000000    -4.886000000
H    -0.125000000    -5.237000000    -3.508000000
C     1.100000000    -3.641000000    -3.123000000
C     1.527000000    -3.943000000    -1.869000000
C     2.696000000    -3.454000000    -1.433000000
H     2.967000000    -3.904000000    -0.481000000
C     3.458000000    -2.524000000    -2.052000000
O     4.454000000    -2.011000000    -1.322000000
C     4.269000000    -0.734000000    -0.847000000
H     3.198000000    -0.532000000    -0.702000000
C     4.835000000    -0.585000000     0.580000000
C     5.222000000     0.682000000     1.048000000
H     5.081000000     1.563000000     0.427000000
C     4.893000000    -1.668000000     1.491000000
H     4.603000000    -2.674000000     1.199000000
C     5.214000000    -1.497000000     2.842000000
O     5.344000000    -2.530000000     3.755000000
C     5.589000000    -0.242000000     3.269000000
H     5.964000000    -0.072000000     4.275000000
C     5.563000000     0.879000000     2.410000000
O     6.007000000     2.033000000     2.912000000
C     5.606000000     3.288000000     2.518000000
C     4.286000000     3.694000000     2.776000000
H     3.633000000     3.200000000     3.491000000
C     6.484000000     4.071000000     1.852000000
H     7.504000000     3.761000000     1.637000000
C     6.031000000     5.283000000     1.376000000
H     6.684000000     5.904000000     0.768000000
C     4.741000000     5.753000000     1.583000000
H     4.337000000     6.701000000     1.238000000
C     3.856000000     4.913000000     2.255000000
O     2.588000000     5.347000000     2.596000000
C     1.519000000     5.393000000     1.681000000
C     0.358000000     6.092000000     2.050000000
H     0.367000000     6.727000000     2.932000000
C    -0.716000000     6.043000000     1.188000000
O    -1.873000000     6.669000000     1.583000000
C    -3.063000000     6.006000000     1.661000000
C    -3.216000000     4.776000000     2.289000000
H    -2.354000000     4.277000000     2.725000000
C    -4.179000000     6.814000000     1.375000000
H    -4.052000000     7.835000000     1.023000000
C    -5.453000000     6.239000000     1.550000000
H    -6.280000000     6.864000000     1.222000000
C    -5.657000000     4.931000000     2.025000000
H    -6.608000000     4.409000000     2.096000000
C    -4.488000000     4.231000000     2.412000000
O    -4.666000000     2.924000000     2.822000000
C    -4.871000000     1.870000000     1.987000000
C    -5.605000000     0.887000000     2.492000000
H    -5.961000000     0.934000000     3.517000000
C    -5.812000000    -0.352000000     1.864000000
O    -6.441000000    -1.323000000     2.571000000
C    -6.170000000    -2.674000000     2.379000000
C    -4.930000000    -3.178000000     2.768000000
H    -4.280000000    -2.395000000     3.149000000
C    -7.119000000    -3.501000000     1.859000000
H    -8.063000000    -3.044000000     1.573000000
C    -6.872000000    -4.855000000     1.885000000
H    -7.613000000    -5.567000000     1.530000000
C    -5.589000000    -5.359000000     2.202000000
H    -5.461000000    -6.438000000     2.165000000
C    -4.628000000    -4.521000000     2.755000000
O    -3.448000000    -5.164000000     3.259000000
C    -2.142000000    -4.894000000     2.812000000
C    -1.108000000    -4.931000000     3.725000000
H    -1.225000000    -5.230000000     4.764000000
C     0.184000000    -4.722000000     3.248000000
O     1.225000000    -4.644000000     4.220000000
C     2.500000000    -4.725000000     3.875000000
C     3.077000000    -5.996000000     3.647000000
H     2.416000000    -6.859000000     3.634000000
C     4.389000000    -6.089000000     3.302000000
H     4.824000000    -7.029000000     2.969000000
C     5.145000000    -4.895000000     3.261000000
H     6.219000000    -4.921000000     3.094000000
C     4.603000000    -3.664000000     3.680000000
C     3.270000000    -3.612000000     3.840000000
H     2.907000000    -2.602000000     4.012000000
C     1.594000000    -0.156000000     1.910000000
H     2.130000000    -0.956000000     2.414000000
C     1.104000000    -0.476000000     0.687000000
H     1.499000000    -1.356000000     0.185000000
C     0.277000000     0.401000000     0.065000000
H    -0.072000000     0.105000000    -0.929000000
C    -0.120000000     1.606000000     0.668000000
H    -0.820000000     2.310000000     0.224000000
C     0.310000000     1.913000000     1.974000000
H     0.062000000     2.845000000     2.477000000
C     1.228000000     1.009000000     2.607000000
C     1.514000000     1.181000000     4.054000000
O     1.404000000     2.325000000     4.544000000
O     1.804000000     0.228000000     4.718000000
O    -1.858000000    -1.161000000     3.165000000
H    -1.174000000    -1.504000000     3.741000000
H    -1.456000000    -0.403000000     2.741000000
O     3.124000000     2.873000000     9.174000000
H     3.074000000     2.524000000     8.284000000
H     4.058000000     3.025000000     9.319000000
O     0.445000000    -3.350000000     7.547000000
H     1.062000000    -2.718000000     7.915000000
H    -0.234000000    -2.813000000     7.139000000
O     3.619000000    -3.768000000     7.410000000
H     3.855000000    -3.048000000     6.826000000
H     3.266000000    -3.339000000     8.189000000
O     3.094000000     2.160000000     6.637000000
H     2.466000000     1.926000000     5.953000000
H     3.942000000     1.890000000     6.285000000
O    -1.562000000    -0.816000000     9.452000000
H    -1.007000000    -0.116000000     9.106000000
H    -2.036000000    -0.410000000    10.177000000
O    -2.723000000     0.141000000     6.364000000
H    -2.657000000    -0.811000000     6.436000000
H    -1.864000000     0.463000000     6.638000000
O     3.441000000    -1.465000000     6.148000000
H     3.928000000    -0.848000000     6.694000000
H     2.916000000    -0.911000000     5.571000000
O     5.189000000     6.064000000     5.480000000
H     4.264000000     5.835000000     5.395000000
H     5.264000000     6.435000000     6.360000000
O    -0.803000000     6.935000000     4.891000000
H     0.024000000     7.326000000     5.175000000
H    -0.583000000     6.024000000     4.697000000
O    -0.027000000     0.732000000     7.305000000
H     0.568000000     0.046000000     7.608000000
H     0.527000000     1.322000000     6.794000000
O    -3.494000000     4.064000000     6.126000000
H    -3.567000000     3.479000000     6.880000000
H    -3.504000000     3.479000000     5.368000000
O    -2.566000000     2.039000000     4.276000000
H    -2.963000000     1.517000000     3.579000000
H    -2.278000000     1.396000000     4.924000000
O     2.536000000     4.799000000     5.433000000
H     2.249000000     4.403000000     4.609000000
H     2.694000000     4.054000000     6.014000000
O     4.312000000     0.057000000     8.487000000
H     4.740000000    -0.645000000     8.977000000
H     4.663000000     0.863000000     8.867000000
O     1.630000000    -0.971000000     8.917000000
H     1.576000000    -1.227000000     9.838000000
H     2.443000000    -0.469000000     8.856000000
O     0.153000000    -1.658000000     4.904000000
H     0.740000000    -0.902000000     4.921000000
H     0.739000000    -2.415000000     4.871000000
O    -2.069000000    -2.656000000     6.284000000
H    -2.481000000    -3.480000000     6.540000000
H    -1.738000000    -2.818000000     5.400000000
O    -0.717000000     4.177000000     4.890000000
H    -1.495000000     3.672000000     4.655000000
H    -0.021000000     3.525000000     4.964000000
