215
-1465.78723
C    -0.609000000     5.258000000    -0.562000000
H    -1.505000000     4.895000000    -1.060000000
C     0.644000000     4.728000000    -0.986000000
C     1.805000000     5.223000000    -0.384000000
H     2.783000000     4.896000000    -0.729000000
C     0.731000000     3.689000000    -2.062000000
O    -0.372000000     3.779000000    -3.006000000
H     0.695000000     2.736000000    -1.514000000
O     1.984000000     3.778000000    -2.783000000
C     2.477000000     2.552000000    -3.115000000
C     3.405000000     1.982000000    -2.267000000
H     3.803000000     2.577000000    -1.449000000
C     3.933000000     0.728000000    -2.512000000
O     4.882000000     0.357000000    -1.612000000
C     3.536000000    -0.086000000    -3.553000000
C     4.041000000    -1.494000000    -3.727000000
H     3.736000000    -1.782000000    -4.735000000
C     3.159000000    -2.375000000    -2.866000000
C     2.047000000    -3.077000000    -3.425000000
H     1.807000000    -2.956000000    -4.478000000
H     5.100000000    -1.734000000    -3.613000000
C     2.520000000     0.450000000    -4.396000000
H     2.012000000    -0.205000000    -5.099000000
C     2.030000000     1.734000000    -4.170000000
C     0.897000000     2.213000000    -5.050000000
H     0.922000000     1.652000000    -5.987000000
H     1.090000000     3.268000000    -5.255000000
C    -0.506000000     1.899000000    -4.498000000
C    -1.215000000     0.792000000    -4.934000000
H    -0.747000000     0.188000000    -5.707000000
C    -1.023000000     2.684000000    -3.473000000
C    -2.319000000     2.493000000    -3.023000000
H    -2.770000000     3.043000000    -2.201000000
C    -2.953000000     1.308000000    -3.382000000
O    -3.994000000     1.073000000    -2.611000000
C    -3.820000000     0.001000000    -1.662000000
C    -4.407000000     0.293000000    -0.306000000
C    -5.167000000    -0.639000000     0.410000000
H    -5.448000000    -1.613000000     0.019000000
C    -4.033000000     1.448000000     0.303000000
H    -3.336000000     2.148000000    -0.152000000
O    -4.319000000    -1.277000000    -2.212000000
H    -2.756000000    -0.174000000    -1.446000000
C    -2.406000000     0.434000000    -4.353000000
C    -2.967000000    -0.926000000    -4.708000000
H    -2.753000000    -1.273000000    -5.721000000
H    -4.055000000    -0.855000000    -4.647000000
C    -2.644000000    -2.053000000    -3.789000000
C    -1.533000000    -2.866000000    -3.930000000
H    -1.003000000    -2.694000000    -4.863000000
C    -3.391000000    -2.199000000    -2.601000000
C    -2.985000000    -3.100000000    -1.578000000
H    -3.605000000    -3.110000000    -0.686000000
C    -1.938000000    -3.970000000    -1.836000000
O    -1.510000000    -4.717000000    -0.750000000
C    -0.560000000    -3.948000000     0.014000000
C    -0.792000000    -4.039000000     1.501000000
C    -2.070000000    -4.385000000     1.962000000
H    -2.922000000    -4.426000000     1.289000000
C     0.255000000    -3.847000000     2.388000000
H     1.272000000    -3.711000000     2.029000000
O     0.733000000    -4.594000000    -0.269000000
H    -0.556000000    -2.873000000    -0.220000000
C    -1.168000000    -3.817000000    -2.968000000
C     0.106000000    -4.560000000    -3.186000000
H     0.380000000    -4.697000000    -4.234000000
H     0.059000000    -5.511000000    -2.650000000
C     1.246000000    -3.834000000    -2.551000000
C     1.542000000    -3.928000000    -1.171000000
C     2.617000000    -3.333000000    -0.632000000
H     2.888000000    -3.507000000     0.406000000
C     3.464000000    -2.576000000    -1.500000000
O     4.572000000    -1.938000000    -0.977000000
C     4.352000000    -0.520000000    -0.667000000
H     3.262000000    -0.419000000    -0.778000000
C     4.688000000    -0.223000000     0.842000000
C     4.751000000     1.058000000     1.285000000
H     4.593000000     1.889000000     0.602000000
C     5.089000000    -1.241000000     1.688000000
H     5.056000000    -2.273000000     1.349000000
C     5.336000000    -0.994000000     3.057000000
O     5.593000000    -2.083000000     3.815000000
C     5.082000000     0.275000000     3.510000000
H     4.982000000     0.419000000     4.583000000
C     4.776000000     1.302000000     2.652000000
O     4.485000000     2.548000000     3.185000000
C     4.720000000     3.675000000     2.464000000
C     3.763000000     4.604000000     2.227000000
H     2.737000000     4.447000000     2.548000000
C     5.971000000     3.933000000     1.896000000
H     6.797000000     3.324000000     2.256000000
C     6.257000000     5.046000000     1.127000000
H     7.302000000     5.155000000     0.847000000
C     5.251000000     5.940000000     0.893000000
H     5.412000000     6.807000000     0.258000000
C     3.988000000     5.745000000     1.362000000
O     2.946000000     6.557000000     1.085000000
C     1.727000000     6.082000000     0.640000000
C     0.506000000     6.620000000     1.032000000
H     0.495000000     7.389000000     1.801000000
C    -0.696000000     6.183000000     0.443000000
O    -1.846000000     6.861000000     0.717000000
C    -3.018000000     6.178000000     0.991000000
C    -3.041000000     4.932000000     1.663000000
H    -2.166000000     4.532000000     2.168000000
C    -4.190000000     6.627000000     0.468000000
H    -4.206000000     7.642000000     0.079000000
C    -5.297000000     5.893000000     0.426000000
H    -6.265000000     6.271000000     0.106000000
C    -5.352000000     4.638000000     0.977000000
H    -6.245000000     4.029000000     0.857000000
C    -4.208000000     4.168000000     1.626000000
O    -4.140000000     2.914000000     2.193000000
C    -4.493000000     1.739000000     1.561000000
C    -5.308000000     0.809000000     2.260000000
H    -5.804000000     0.969000000     3.214000000
C    -5.611000000    -0.401000000     1.672000000
O    -6.470000000    -1.245000000     2.333000000
C    -6.210000000    -2.590000000     2.502000000
C    -4.915000000    -3.023000000     2.732000000
H    -4.101000000    -2.302000000     2.713000000
C    -7.286000000    -3.473000000     2.570000000
H    -8.283000000    -3.043000000     2.512000000
C    -7.041000000    -4.749000000     2.999000000
H    -7.909000000    -5.404000000     3.015000000
C    -5.787000000    -5.184000000     3.273000000
H    -5.649000000    -6.202000000     3.626000000
C    -4.699000000    -4.293000000     3.175000000
O    -3.488000000    -4.555000000     3.848000000
C    -2.243000000    -4.343000000     3.370000000
C    -1.150000000    -4.081000000     4.218000000
H    -1.374000000    -3.970000000     5.276000000
C     0.071000000    -3.823000000     3.757000000
O     1.075000000    -3.413000000     4.691000000
C     2.374000000    -3.766000000     4.467000000
C     2.816000000    -5.078000000     4.256000000
H     2.044000000    -5.841000000     4.312000000
C     4.180000000    -5.362000000     4.024000000
H     4.565000000    -6.378000000     3.980000000
C     5.169000000    -4.366000000     3.971000000
H     6.205000000    -4.680000000     3.868000000
C     4.693000000    -3.057000000     4.041000000
C     3.325000000    -2.757000000     4.350000000
H     3.041000000    -1.739000000     4.601000000
C     1.241000000     0.587000000     2.972000000
H     1.758000000     0.062000000     3.771000000
C     0.850000000    -0.172000000     1.872000000
H     1.024000000    -1.245000000     1.856000000
C     0.086000000     0.470000000     0.829000000
H    -0.168000000    -0.047000000    -0.124000000
C    -0.229000000     1.866000000     0.931000000
H    -0.754000000     2.394000000     0.139000000
C     0.167000000     2.620000000     2.056000000
H    -0.171000000     3.637000000     2.238000000
C     0.853000000     1.934000000     3.107000000
C     1.064000000     2.652000000     4.401000000
O     0.869000000     3.847000000     4.556000000
O     1.466000000     2.039000000     5.379000000
O    -1.254000000     3.860000000     6.376000000
H    -0.956000000     4.375000000     7.126000000
H    -0.591000000     4.013000000     5.702000000
O     2.326000000     5.246000000     6.283000000
H     1.843000000     4.717000000     5.648000000
H     3.243000000     5.013000000     6.139000000
O    -2.045000000     1.160000000     6.487000000
H    -1.574000000     0.756000000     7.216000000
H    -1.724000000     2.061000000     6.465000000
O     3.479000000     3.324000000     9.392000000
H     3.274000000     4.244000000     9.221000000
H     4.069000000     3.074000000     8.681000000
O    -0.493000000    -1.820000000     7.386000000
H    -0.736000000    -1.072000000     7.932000000
H    -1.329000000    -2.190000000     7.101000000
O     5.269000000     6.391000000     4.549000000
H     5.352000000     7.055000000     3.865000000
H     4.976000000     6.876000000     5.320000000
O     1.693000000     8.359000000     6.264000000
H     1.422000000     8.473000000     5.353000000
H     1.823000000     7.415000000     6.359000000
O     1.134000000     2.426000000     8.098000000
H     2.029000000     2.585000000     8.398000000
H     1.205000000     2.382000000     7.145000000
O     0.680000000     3.351000000    10.748000000
H     0.661000000     3.294000000     9.793000000
H    -0.235000000     3.481000000    10.998000000
O    -0.397000000     6.250000000     4.042000000
H    -0.244000000     5.307000000     4.107000000
H     0.477000000     6.637000000     4.087000000
O     1.952000000    -0.438000000     6.491000000
H     1.126000000    -0.921000000     6.468000000
H     1.736000000     0.422000000     6.131000000
O     0.130000000     5.818000000     7.892000000
H     0.858000000     5.564000000     7.325000000
H     0.550000000     6.184000000     8.670000000
O     4.255000000    -0.739000000     7.800000000
H     4.376000000     0.207000000     7.723000000
H     3.559000000    -0.944000000     7.175000000
O     4.049000000     1.896000000     6.663000000
H     3.146000000     2.030000000     6.376000000
H     4.568000000     2.468000000     6.097000000
O    -0.781000000     0.412000000     8.919000000
H     0.013000000     0.922000000     8.758000000
H    -0.991000000     0.580000000     9.837000000
O     4.949000000     4.411000000     6.212000000
H     5.000000000     4.537000000     5.265000000
H     5.192000000     5.261000000     6.581000000
O    -3.705000000    -0.650000000     5.139000000
H    -3.377000000    -0.579000000     4.243000000
H    -3.383000000     0.139000000     5.575000000
O    -2.280000000    -0.383000000     2.893000000
H    -2.000000000     0.525000000     3.002000000
H    -1.621000000    -0.770000000     2.317000000
O    -3.608000000     5.433000000     5.127000000
H    -3.207000000     5.183000000     5.959000000
H    -2.908000000     5.875000000     4.647000000
