215
-1445.51935
C    -1.435000000     5.393000000    -1.031000000
H    -2.282000000     5.007000000    -1.593000000
C    -0.171000000     4.988000000    -1.403000000
C     0.969000000     5.598000000    -0.806000000
H     1.968000000     5.224000000    -1.015000000
C    -0.004000000     3.834000000    -2.468000000
O    -1.014000000     3.841000000    -3.519000000
H    -0.039000000     2.894000000    -1.897000000
O     1.345000000     3.839000000    -3.020000000
C     1.955000000     2.640000000    -3.269000000
C     3.013000000     2.320000000    -2.361000000
H     3.168000000     2.926000000    -1.472000000
C     3.639000000     1.092000000    -2.418000000
O     4.311000000     0.689000000    -1.329000000
C     3.243000000     0.186000000    -3.465000000
C     3.730000000    -1.197000000    -3.649000000
H     3.813000000    -1.386000000    -4.722000000
C     2.937000000    -2.227000000    -2.914000000
C     2.012000000    -3.058000000    -3.465000000
H     1.686000000    -2.981000000    -4.499000000
H     4.790000000    -1.172000000    -3.387000000
C     2.303000000     0.570000000    -4.398000000
H     2.014000000    -0.141000000    -5.169000000
C     1.663000000     1.768000000    -4.334000000
C     0.615000000     2.258000000    -5.332000000
H     0.745000000     1.786000000    -6.308000000
H     0.674000000     3.348000000    -5.317000000
C    -0.751000000     1.755000000    -4.753000000
C    -1.205000000     0.422000000    -4.901000000
H    -0.680000000    -0.232000000    -5.593000000
C    -1.473000000     2.612000000    -3.912000000
C    -2.634000000     2.162000000    -3.257000000
H    -3.107000000     2.881000000    -2.593000000
C    -3.132000000     0.880000000    -3.513000000
O    -4.244000000     0.434000000    -2.774000000
C    -3.838000000    -0.373000000    -1.598000000
C    -4.467000000     0.142000000    -0.321000000
C    -3.977000000    -0.509000000     0.801000000
H    -3.339000000    -1.376000000     0.652000000
C    -5.012000000     1.448000000    -0.183000000
H    -5.206000000     1.988000000    -1.106000000
O    -4.218000000    -1.731000000    -1.862000000
H    -2.745000000    -0.326000000    -1.485000000
C    -2.414000000    -0.032000000    -4.311000000
C    -2.962000000    -1.420000000    -4.442000000
H    -2.666000000    -1.810000000    -5.418000000
H    -4.041000000    -1.255000000    -4.481000000
C    -2.519000000    -2.403000000    -3.385000000
C    -1.485000000    -3.249000000    -3.716000000
H    -1.098000000    -3.261000000    -4.732000000
C    -3.158000000    -2.512000000    -2.166000000
C    -2.749000000    -3.490000000    -1.229000000
H    -3.254000000    -3.581000000    -0.270000000
C    -1.657000000    -4.297000000    -1.501000000
O    -1.150000000    -5.058000000    -0.515000000
C     0.111000000    -4.578000000     0.059000000
C     0.118000000    -4.850000000     1.620000000
C    -1.029000000    -5.053000000     2.320000000
H    -2.007000000    -4.903000000     1.869000000
C     1.308000000    -4.953000000     2.295000000
H     2.262000000    -4.948000000     1.774000000
O     1.254000000    -5.139000000    -0.560000000
H     0.099000000    -3.487000000    -0.082000000
C    -0.958000000    -4.100000000    -2.758000000
C     0.273000000    -4.835000000    -3.252000000
H     0.386000000    -4.910000000    -4.336000000
H     0.204000000    -5.854000000    -2.867000000
C     1.424000000    -4.051000000    -2.682000000
C     1.864000000    -4.269000000    -1.370000000
C     2.807000000    -3.477000000    -0.805000000
H     3.146000000    -3.652000000     0.212000000
C     3.301000000    -2.432000000    -1.539000000
O     4.211000000    -1.607000000    -0.895000000
C     3.742000000    -0.328000000    -0.459000000
H     2.645000000    -0.284000000    -0.533000000
C     4.021000000     0.070000000     1.030000000
C     3.534000000     1.271000000     1.514000000
H     2.862000000     1.884000000     0.920000000
C     4.831000000    -0.735000000     1.797000000
H     5.354000000    -1.601000000     1.399000000
C     4.931000000    -0.422000000     3.114000000
O     5.471000000    -1.369000000     4.017000000
C     4.421000000     0.705000000     3.638000000
H     4.629000000     0.961000000     4.674000000
C     3.685000000     1.567000000     2.859000000
O     3.099000000     2.703000000     3.370000000
C     3.333000000     3.999000000     2.901000000
C     2.396000000     4.715000000     2.194000000
H     1.531000000     4.163000000     1.835000000
C     4.501000000     4.585000000     3.330000000
H     5.203000000     4.005000000     3.923000000
C     4.812000000     5.922000000     2.980000000
H     5.735000000     6.428000000     3.252000000
C     3.873000000     6.585000000     2.233000000
H     4.074000000     7.564000000     1.805000000
C     2.688000000     6.014000000     1.831000000
O     1.876000000     6.816000000     1.097000000
C     0.768000000     6.363000000     0.294000000
C    -0.467000000     6.861000000     0.691000000
H    -0.561000000     7.476000000     1.582000000
C    -1.571000000     6.277000000     0.065000000
O    -2.854000000     6.618000000     0.532000000
C    -4.078000000     5.971000000     0.254000000
C    -4.446000000     4.737000000     0.804000000
H    -3.731000000     4.217000000     1.435000000
C    -4.953000000     6.607000000    -0.522000000
H    -4.676000000     7.527000000    -1.029000000
C    -6.243000000     6.153000000    -0.681000000
H    -6.912000000     6.577000000    -1.425000000
C    -6.653000000     4.968000000    -0.089000000
H    -7.673000000     4.620000000    -0.229000000
C    -5.780000000     4.283000000     0.658000000
O    -6.147000000     3.074000000     1.173000000
C    -5.406000000     1.894000000     1.051000000
C    -4.990000000     1.109000000     2.161000000
H    -5.191000000     1.507000000     3.153000000
C    -4.179000000    -0.064000000     2.059000000
O    -3.648000000    -0.813000000     3.131000000
C    -3.910000000    -2.200000000     3.335000000
C    -2.882000000    -2.974000000     3.852000000
H    -1.913000000    -2.529000000     4.063000000
C    -5.140000000    -2.786000000     2.963000000
H    -5.867000000    -2.166000000     2.445000000
C    -5.304000000    -4.135000000     3.234000000
H    -6.161000000    -4.723000000     2.916000000
C    -4.315000000    -4.890000000     3.870000000
H    -4.480000000    -5.957000000     4.000000000
C    -3.083000000    -4.294000000     4.106000000
O    -2.133000000    -5.134000000     4.487000000
C    -0.975000000    -5.097000000     3.701000000
C     0.251000000    -5.200000000     4.347000000
H     0.217000000    -5.300000000     5.429000000
C     1.416000000    -5.112000000     3.668000000
O     2.552000000    -5.126000000     4.424000000
C     3.790000000    -4.604000000     4.063000000
C     4.877000000    -5.432000000     3.695000000
H     4.801000000    -6.515000000     3.649000000
C     6.135000000    -4.900000000     3.503000000
H     6.869000000    -5.673000000     3.294000000
C     6.321000000    -3.553000000     3.555000000
H     7.320000000    -3.159000000     3.388000000
C     5.255000000    -2.724000000     3.808000000
C     3.996000000    -3.222000000     4.068000000
H     3.283000000    -2.507000000     4.469000000
C    -0.145000000    -0.170000000     2.233000000
H     0.010000000    -0.821000000     3.090000000
C     0.196000000    -0.772000000     1.042000000
H     0.734000000    -1.711000000     1.144000000
C    -0.064000000    -0.248000000    -0.220000000
H     0.092000000    -0.808000000    -1.131000000
C    -0.690000000     1.004000000    -0.261000000
H    -1.080000000     1.317000000    -1.226000000
C    -0.939000000     1.684000000     0.890000000
H    -1.393000000     2.667000000     0.793000000
C    -0.661000000     1.160000000     2.159000000
C    -1.170000000     1.881000000     3.355000000
O    -1.756000000     2.951000000     3.194000000
O    -1.018000000     1.355000000     4.431000000
O    -1.073000000     2.829000000     6.527000000
H    -1.123000000     2.211000000     5.797000000
H    -0.329000000     2.525000000     7.047000000
O    -5.719000000     0.666000000     7.274000000
H    -5.069000000     0.430000000     6.612000000
H    -5.446000000     0.190000000     8.058000000
O    -0.468000000    -0.335000000     6.276000000
H    -1.228000000    -0.916000000     6.296000000
H    -0.674000000     0.306000000     5.596000000
O    -4.593000000     5.114000000     8.308000000
H    -4.029000000     4.377000000     8.076000000
H    -5.009000000     4.848000000     9.129000000
O    -0.834000000     7.712000000     4.528000000
H    -0.061000000     7.961000000     4.020000000
H    -0.842000000     6.755000000     4.497000000
O     0.032000000    -3.442000000     7.438000000
H    -0.903000000    -3.478000000     7.232000000
H     0.352000000    -2.677000000     6.960000000
O    -2.144000000     6.289000000     8.036000000
H    -1.883000000     5.751000000     7.289000000
H    -3.098000000     6.212000000     8.065000000
O    -3.529000000     2.772000000     7.561000000
H    -2.600000000     2.679000000     7.350000000
H    -3.950000000     2.036000000     7.116000000
O    -0.876000000     5.043000000     4.702000000
H    -1.164000000     4.339000000     4.121000000
H    -0.530000000     4.591000000     5.472000000
O     1.497000000     2.495000000     7.658000000
H     1.471000000     3.150000000     8.356000000
H     2.360000000     2.090000000     7.742000000
O    -3.653000000     6.657000000     4.246000000
H    -3.592000000     5.772000000     4.605000000
H    -2.759000000     6.996000000     4.291000000
O     2.105000000    -0.462000000     6.424000000
H     1.156000000    -0.422000000     6.306000000
H     2.381000000     0.455000000     6.453000000
O    -7.676000000     0.241000000     4.232000000
H    -7.260000000     0.192000000     5.092000000
H    -8.052000000    -0.629000000     4.098000000
O    -2.851000000    -1.712000000     7.440000000
H    -2.747000000    -1.736000000     8.391000000
H    -3.556000000    -2.334000000     7.261000000
O     2.218000000     5.184000000     6.237000000
H     2.527000000     4.424000000     5.744000000
H     1.899000000     5.790000000     5.568000000
O    -0.109000000     0.898000000    10.184000000
H     0.744000000     0.555000000    10.448000000
H     0.015000000     1.178000000     9.277000000
O    -6.535000000     4.037000000     5.417000000
H    -6.569000000     3.385000000     6.116000000
H    -5.620000000     4.040000000     5.137000000
O    -3.573000000     0.823000000     5.438000000
H    -2.748000000     1.015000000     4.993000000
H    -4.025000000     0.216000000     4.852000000
O    -3.753000000     3.837000000     4.804000000
H    -3.080000000     3.662000000     4.146000000
H    -3.509000000     3.287000000     5.548000000
