215
-1433.53867
C    -2.141000000     4.913000000     0.035000000
H    -2.890000000     4.339000000    -0.506000000
C    -0.757000000     4.719000000    -0.169000000
C     0.139000000     5.240000000     0.729000000
H     1.200000000     5.184000000     0.497000000
C    -0.318000000     3.923000000    -1.357000000
O    -1.251000000     4.148000000    -2.387000000
H    -0.267000000     2.862000000    -1.072000000
O     1.016000000     4.323000000    -1.780000000
C     1.865000000     3.370000000    -2.397000000
C     2.902000000     2.940000000    -1.658000000
H     3.074000000     3.386000000    -0.682000000
C     3.652000000     1.843000000    -2.086000000
O     4.564000000     1.437000000    -1.121000000
C     3.422000000     1.170000000    -3.301000000
C     4.176000000    -0.102000000    -3.680000000
H     4.191000000    -0.300000000    -4.754000000
C     3.662000000    -1.327000000    -2.886000000
C     2.756000000    -2.147000000    -3.598000000
H     2.334000000    -1.833000000    -4.549000000
H     5.214000000     0.079000000    -3.396000000
C     2.379000000     1.717000000    -4.051000000
H     2.031000000     1.245000000    -4.967000000
C     1.631000000     2.802000000    -3.607000000
C     0.483000000     3.176000000    -4.464000000
H     0.717000000     2.939000000    -5.504000000
H     0.364000000     4.261000000    -4.429000000
C    -0.839000000     2.562000000    -4.173000000
C    -0.994000000     1.237000000    -4.695000000
H    -0.345000000     0.815000000    -5.458000000
C    -1.658000000     3.055000000    -3.148000000
C    -2.738000000     2.308000000    -2.816000000
H    -3.413000000     2.590000000    -2.012000000
C    -3.012000000     1.064000000    -3.437000000
O    -4.061000000     0.398000000    -2.957000000
C    -3.776000000    -0.539000000    -1.871000000
C    -4.654000000    -0.416000000    -0.629000000
C    -4.514000000    -1.372000000     0.375000000
H    -3.789000000    -2.177000000     0.291000000
C    -5.453000000     0.686000000    -0.445000000
H    -5.580000000     1.405000000    -1.250000000
O    -3.805000000    -1.937000000    -2.430000000
H    -2.775000000    -0.389000000    -1.438000000
C    -2.080000000     0.459000000    -4.263000000
C    -2.433000000    -0.917000000    -4.807000000
H    -1.979000000    -0.931000000    -5.800000000
H    -3.513000000    -0.952000000    -4.962000000
C    -1.905000000    -1.937000000    -3.884000000
C    -0.661000000    -2.543000000    -4.196000000
H    -0.088000000    -2.237000000    -5.068000000
C    -2.568000000    -2.383000000    -2.744000000
C    -2.014000000    -3.366000000    -1.932000000
H    -2.555000000    -3.752000000    -1.072000000
C    -0.802000000    -3.917000000    -2.187000000
O    -0.284000000    -4.812000000    -1.304000000
C     0.737000000    -4.332000000    -0.388000000
C     0.604000000    -4.790000000     1.110000000
C    -0.615000000    -5.043000000     1.643000000
H    -1.446000000    -5.125000000     0.947000000
C     1.736000000    -4.770000000     1.925000000
H     2.728000000    -4.551000000     1.538000000
O     2.000000000    -4.661000000    -0.976000000
H     0.792000000    -3.234000000    -0.343000000
C    -0.123000000    -3.497000000    -3.356000000
C     1.242000000    -4.125000000    -3.681000000
H     1.377000000    -4.223000000    -4.761000000
H     1.299000000    -5.162000000    -3.342000000
C     2.352000000    -3.392000000    -3.029000000
C     2.697000000    -3.681000000    -1.662000000
C     3.548000000    -2.873000000    -1.025000000
H     3.782000000    -3.062000000     0.019000000
C     4.094000000    -1.695000000    -1.613000000
O     4.873000000    -0.897000000    -0.811000000
C     4.297000000     0.347000000    -0.225000000
H     3.202000000     0.269000000    -0.287000000
C     4.562000000     0.623000000     1.222000000
C     3.891000000     1.584000000     1.959000000
H     3.120000000     2.119000000     1.410000000
C     5.236000000    -0.355000000     1.949000000
H     5.499000000    -1.241000000     1.377000000
C     5.370000000    -0.223000000     3.374000000
O     5.987000000    -1.304000000     4.130000000
C     4.828000000     0.827000000     4.067000000
H     4.817000000     0.799000000     5.153000000
C     4.005000000     1.772000000     3.353000000
O     3.297000000     2.748000000     4.038000000
C     3.227000000     4.046000000     3.654000000
C     2.008000000     4.596000000     3.353000000
H     1.093000000     4.040000000     3.545000000
C     4.360000000     4.876000000     3.522000000
H     5.333000000     4.401000000     3.617000000
C     4.228000000     6.194000000     3.083000000
H     5.087000000     6.840000000     2.920000000
C     2.970000000     6.760000000     2.808000000
H     2.851000000     7.818000000     2.591000000
C     1.834000000     5.910000000     2.947000000
O     0.610000000     6.475000000     2.664000000
C    -0.323000000     5.875000000     1.904000000
C    -1.690000000     6.058000000     2.184000000
H    -2.011000000     6.683000000     3.014000000
C    -2.561000000     5.486000000     1.204000000
O    -3.865000000     5.626000000     1.505000000
C    -4.873000000     4.952000000     0.792000000
C    -5.497000000     3.874000000     1.282000000
H    -5.265000000     3.571000000     2.300000000
C    -5.216000000     5.389000000    -0.475000000
H    -4.614000000     6.235000000    -0.798000000
C    -6.324000000     4.857000000    -1.135000000
H    -6.580000000     5.274000000    -2.106000000
C    -6.891000000     3.735000000    -0.641000000
H    -7.595000000     3.194000000    -1.268000000
C    -6.547000000     3.241000000     0.609000000
O    -6.917000000     1.985000000     0.986000000
C    -6.114000000     0.866000000     0.781000000
C    -5.927000000    -0.095000000     1.763000000
H    -6.470000000     0.099000000     2.685000000
C    -5.241000000    -1.231000000     1.560000000
O    -5.181000000    -2.158000000     2.617000000
C    -4.767000000    -3.476000000     2.598000000
C    -3.548000000    -3.898000000     3.143000000
H    -2.950000000    -3.126000000     3.621000000
C    -5.644000000    -4.478000000     2.074000000
H    -6.532000000    -4.116000000     1.561000000
C    -5.268000000    -5.822000000     1.974000000
H    -6.022000000    -6.462000000     1.524000000
C    -3.992000000    -6.163000000     2.370000000
H    -3.671000000    -7.201000000     2.380000000
C    -3.138000000    -5.203000000     2.941000000
O    -1.959000000    -5.643000000     3.533000000
C    -0.728000000    -5.354000000     2.990000000
C     0.371000000    -5.203000000     3.796000000
H     0.288000000    -5.214000000     4.880000000
C     1.615000000    -4.917000000     3.305000000
O     2.748000000    -4.862000000     4.044000000
C     3.955000000    -4.328000000     3.612000000
C     4.846000000    -5.123000000     2.959000000
H     4.497000000    -6.101000000     2.639000000
C     6.090000000    -4.575000000     2.474000000
H     6.770000000    -5.161000000     1.860000000
C     6.534000000    -3.321000000     3.026000000
H     7.567000000    -3.010000000     2.894000000
C     5.585000000    -2.559000000     3.737000000
C     4.280000000    -3.001000000     3.943000000
H     3.544000000    -2.372000000     4.437000000
C     0.480000000    -0.318000000     1.826000000
H     0.937000000    -0.544000000     2.786000000
C     0.966000000    -0.895000000     0.670000000
H     1.656000000    -1.732000000     0.728000000
C     0.438000000    -0.576000000    -0.565000000
H     0.826000000    -0.996000000    -1.521000000
C    -0.581000000     0.449000000    -0.513000000
H    -0.953000000     0.733000000    -1.494000000
C    -1.001000000     1.067000000     0.639000000
H    -1.786000000     1.817000000     0.601000000
C    -0.422000000     0.714000000     1.847000000
C    -0.811000000     1.377000000     3.183000000
O    -1.363000000     2.407000000     3.195000000
O    -0.523000000     0.738000000     4.110000000
O    -5.080000000     3.812000000     4.927000000
H    -4.349000000     3.193000000     4.936000000
H    -4.664000000     4.673000000     4.903000000
O    -0.980000000    -1.749000000     5.428000000
H    -1.153000000    -0.876000000     5.074000000
H    -0.312000000    -2.115000000     4.848000000
O     0.690000000     6.192000000     6.918000000
H     0.667000000     5.238000000     6.840000000
H     1.578000000     6.432000000     6.651000000
O     1.645000000     0.650000000     5.521000000
H     1.860000000    -0.158000000     5.987000000
H     0.784000000     0.484000000     5.139000000
O    -0.989000000     3.183000000     9.657000000
H    -1.081000000     2.959000000     8.731000000
H    -1.887000000     3.309000000     9.963000000
O    -1.645000000     2.224000000     6.983000000
H    -1.081000000     1.708000000     6.407000000
H    -1.495000000     3.131000000     6.716000000
O    -3.955000000     1.311000000     7.978000000
H    -3.242000000     1.718000000     7.485000000
H    -3.627000000     0.440000000     8.200000000
O    -3.315000000    -1.498000000     9.101000000
H    -2.808000000    -1.912000000     8.403000000
H    -2.950000000    -1.857000000     9.909000000
O     2.449000000     2.093000000     8.695000000
H     2.827000000     2.454000000     9.496000000
H     2.236000000     1.187000000     8.918000000
O    -0.809000000     7.455000000     5.124000000
H    -0.047000000     7.961000000     4.842000000
H    -0.483000000     6.910000000     5.840000000
O    -2.956000000    -3.446000000     6.681000000
H    -3.730000000    -2.982000000     6.363000000
H    -2.223000000    -2.877000000     6.445000000
O    -1.177000000     4.296000000     4.987000000
H    -1.377000000     3.660000000     4.300000000
H    -0.364000000     4.712000000     4.699000000
O    -6.090000000     0.218000000     5.898000000
H    -5.608000000     0.933000000     5.481000000
H    -6.981000000     0.555000000     5.994000000
O     4.318000000     2.952000000     6.717000000
H     3.733000000     2.597000000     6.048000000
H     3.864000000     2.787000000     7.544000000
O     1.990000000    -2.049000000     6.396000000
H     2.899000000    -2.112000000     6.689000000
H     1.478000000    -2.389000000     7.130000000
O     1.320000000     3.311000000     6.631000000
H     1.582000000     3.104000000     7.528000000
H     1.335000000     2.469000000     6.176000000
O    -3.469000000     1.270000000     4.520000000
H    -3.029000000     0.431000000     4.388000000
H    -2.942000000     1.897000000     4.025000000
O    -5.158000000    -2.225000000     5.397000000
H    -5.668000000    -1.478000000     5.710000000
H    -5.037000000    -2.058000000     4.463000000
O    -3.840000000     6.261000000     5.473000000
H    -4.243000000     7.088000000     5.735000000
H    -2.899000000     6.432000000     5.502000000
