215
-1451.58428
C    -1.747000000     5.113000000    -0.378000000
H    -2.517000000     4.868000000    -1.106000000
C    -0.450000000     4.712000000    -0.646000000
C     0.546000000     5.212000000     0.193000000
H     1.561000000     4.869000000     0.004000000
C    -0.049000000     3.846000000    -1.858000000
O    -1.007000000     3.981000000    -2.885000000
H    -0.011000000     2.810000000    -1.489000000
O     1.223000000     4.122000000    -2.392000000
C     1.967000000     3.061000000    -2.871000000
C     3.103000000     2.806000000    -2.129000000
H     3.486000000     3.371000000    -1.283000000
C     3.814000000     1.631000000    -2.423000000
O     4.813000000     1.307000000    -1.537000000
C     3.488000000     0.771000000    -3.436000000
C     4.353000000    -0.500000000    -3.739000000
H     4.331000000    -0.633000000    -4.823000000
C     3.714000000    -1.710000000    -3.085000000
C     2.659000000    -2.397000000    -3.674000000
H     2.403000000    -2.048000000    -4.671000000
H     5.388000000    -0.376000000    -3.414000000
C     2.416000000     1.098000000    -4.213000000
H     2.134000000     0.478000000    -5.060000000
C     1.607000000     2.260000000    -3.948000000
C     0.554000000     2.577000000    -4.923000000
H     0.809000000     2.228000000    -5.926000000
H     0.457000000     3.642000000    -5.145000000
C    -0.801000000     2.102000000    -4.368000000
C    -1.228000000     0.835000000    -4.747000000
H    -0.618000000     0.349000000    -5.505000000
C    -1.479000000     2.764000000    -3.411000000
C    -2.670000000     2.216000000    -2.856000000
H    -3.174000000     2.789000000    -2.081000000
C    -3.071000000     0.939000000    -3.240000000
O    -4.070000000     0.334000000    -2.563000000
C    -3.782000000    -0.676000000    -1.536000000
C    -4.614000000    -0.462000000    -0.231000000
C    -4.848000000    -1.483000000     0.663000000
H    -4.478000000    -2.444000000     0.313000000
C    -5.060000000     0.828000000     0.095000000
H    -4.887000000     1.628000000    -0.621000000
O    -3.976000000    -1.955000000    -2.169000000
H    -2.751000000    -0.451000000    -1.226000000
C    -2.344000000     0.227000000    -4.195000000
C    -2.779000000    -1.175000000    -4.628000000
H    -2.436000000    -1.334000000    -5.652000000
H    -3.864000000    -1.177000000    -4.749000000
C    -2.272000000    -2.304000000    -3.798000000
C    -1.045000000    -2.953000000    -4.140000000
H    -0.508000000    -2.623000000    -5.026000000
C    -2.869000000    -2.634000000    -2.617000000
C    -2.279000000    -3.569000000    -1.794000000
H    -2.628000000    -3.590000000    -0.765000000
C    -1.110000000    -4.231000000    -2.171000000
O    -0.497000000    -5.012000000    -1.259000000
C     0.576000000    -4.363000000    -0.417000000
C     0.324000000    -4.585000000     1.075000000
C    -0.968000000    -4.778000000     1.547000000
H    -1.633000000    -5.130000000     0.762000000
C     1.363000000    -4.316000000     1.998000000
H     2.362000000    -4.021000000     1.688000000
O     1.905000000    -4.672000000    -0.793000000
H     0.426000000    -3.281000000    -0.541000000
C    -0.460000000    -3.844000000    -3.324000000
C     0.939000000    -4.309000000    -3.644000000
H     1.150000000    -4.348000000    -4.715000000
H     1.008000000    -5.371000000    -3.399000000
C     2.022000000    -3.469000000    -2.950000000
C     2.476000000    -3.788000000    -1.669000000
C     3.462000000    -3.015000000    -1.091000000
H     3.752000000    -3.234000000    -0.067000000
C     4.086000000    -1.992000000    -1.787000000
O     4.874000000    -1.144000000    -1.169000000
C     4.430000000     0.156000000    -0.620000000
H     3.346000000    -0.028000000    -0.583000000
C     4.903000000     0.437000000     0.842000000
C     4.419000000     1.573000000     1.535000000
H     3.811000000     2.326000000     1.040000000
C     5.561000000    -0.528000000     1.660000000
H     5.670000000    -1.534000000     1.262000000
C     5.763000000    -0.344000000     3.010000000
O     6.229000000    -1.451000000     3.784000000
C     5.338000000     0.852000000     3.614000000
H     5.463000000     1.064000000     4.673000000
C     4.747000000     1.828000000     2.867000000
O     4.432000000     3.034000000     3.508000000
C     4.193000000     4.230000000     2.922000000
C     2.928000000     4.640000000     2.685000000
H     2.049000000     4.019000000     2.839000000
C     5.170000000     5.135000000     2.673000000
H     6.209000000     4.872000000     2.848000000
C     4.842000000     6.388000000     2.124000000
H     5.698000000     7.045000000     1.995000000
C     3.545000000     6.837000000     2.072000000
H     3.193000000     7.851000000     1.901000000
C     2.555000000     5.910000000     2.265000000
O     1.239000000     6.376000000     2.232000000
C     0.240000000     5.987000000     1.345000000
C    -1.036000000     6.315000000     1.583000000
H    -1.305000000     6.872000000     2.477000000
C    -2.102000000     5.864000000     0.754000000
O    -3.424000000     6.178000000     1.005000000
C    -4.516000000     5.431000000     0.701000000
C    -4.764000000     4.143000000     1.189000000
H    -4.000000000     3.758000000     1.859000000
C    -5.461000000     6.053000000    -0.088000000
H    -5.152000000     6.977000000    -0.571000000
C    -6.678000000     5.393000000    -0.462000000
H    -7.485000000     5.952000000    -0.928000000
C    -6.946000000     4.116000000     0.121000000
H    -7.955000000     3.747000000    -0.049000000
C    -5.967000000     3.478000000     0.884000000
O    -6.308000000     2.313000000     1.511000000
C    -5.774000000     1.080000000     1.244000000
C    -5.987000000     0.033000000     2.123000000
H    -6.656000000     0.181000000     2.967000000
C    -5.582000000    -1.267000000     1.781000000
O    -5.980000000    -2.233000000     2.671000000
C    -5.438000000    -3.450000000     2.907000000
C    -4.046000000    -3.691000000     2.983000000
H    -3.414000000    -2.808000000     2.953000000
C    -6.367000000    -4.460000000     3.190000000
H    -7.425000000    -4.213000000     3.191000000
C    -5.893000000    -5.729000000     3.551000000
H    -6.610000000    -6.511000000     3.786000000
C    -4.554000000    -6.033000000     3.587000000
H    -4.252000000    -6.983000000     4.020000000
C    -3.603000000    -5.042000000     3.228000000
O    -2.305000000    -5.226000000     3.565000000
C    -1.157000000    -4.795000000     2.966000000
C    -0.196000000    -4.420000000     3.857000000
H    -0.366000000    -4.305000000     4.924000000
C     1.074000000    -4.230000000     3.358000000
O     2.069000000    -3.791000000     4.257000000
C     3.403000000    -3.764000000     3.901000000
C     4.078000000    -4.988000000     3.788000000
H     3.504000000    -5.907000000     3.709000000
C     5.452000000    -4.969000000     3.707000000
H     5.932000000    -5.944000000     3.741000000
C     6.179000000    -3.742000000     3.722000000
H     7.263000000    -3.680000000     3.771000000
C     5.488000000    -2.593000000     3.814000000
C     4.098000000    -2.552000000     3.910000000
H     3.625000000    -1.574000000     3.942000000
C     0.922000000     0.077000000     2.052000000
H     1.421000000    -0.147000000     2.992000000
C     1.267000000    -0.628000000     0.859000000
H     2.095000000    -1.333000000     0.839000000
C     0.581000000    -0.334000000    -0.326000000
H     0.749000000    -0.952000000    -1.179000000
C    -0.423000000     0.636000000    -0.323000000
H    -0.937000000     0.761000000    -1.272000000
C    -0.887000000     1.217000000     0.915000000
H    -1.664000000     1.967000000     1.039000000
C    -0.139000000     0.984000000     2.065000000
C    -0.560000000     1.718000000     3.349000000
O    -1.387000000     2.631000000     3.304000000
O     0.008000000     1.472000000     4.403000000
O    -1.398000000     1.462000000     6.810000000
H    -0.856000000     1.340000000     6.031000000
H    -1.268000000     0.662000000     7.320000000
O     1.586000000     6.484000000     6.079000000
H     1.548000000     5.794000000     5.417000000
H     2.504000000     6.507000000     6.349000000
O     1.582000000     0.791000000     6.918000000
H     1.472000000    -0.117000000     6.637000000
H     1.015000000     1.294000000     6.333000000
O    -1.223000000     4.468000000    10.280000000
H    -2.000000000     4.415000000    10.836000000
H    -1.496000000     4.079000000     9.449000000
O    -1.624000000     4.080000000     7.455000000
H    -2.075000000     4.308000000     6.642000000
H    -1.457000000     3.140000000     7.381000000
O     0.039000000     8.476000000     4.574000000
H     0.791000000     8.673000000     4.015000000
H     0.312000000     7.712000000     5.082000000
O    -4.143000000    -0.513000000     8.074000000
H    -4.651000000    -0.244000000     7.308000000
H    -3.232000000    -0.480000000     7.781000000
O    -5.653000000     4.140000000     5.598000000
H    -6.477000000     3.673000000     5.736000000
H    -5.073000000     3.491000000     5.201000000
O    -1.553000000     4.706000000     4.852000000
H    -1.707000000     4.203000000     4.052000000
H    -0.770000000     4.311000000     5.235000000
O     1.149000000    -0.036000000     9.631000000
H     1.927000000     0.062000000    10.180000000
H     1.367000000     0.430000000     8.823000000
O     0.388000000     6.637000000     8.554000000
H     0.314000000     5.762000000     8.935000000
H     0.787000000     6.492000000     7.696000000
O     3.914000000     2.483000000     7.398000000
H     3.132000000     1.951000000     7.541000000
H     3.685000000     3.344000000     7.748000000
O     1.294000000    -2.140000000     6.381000000
H     1.214000000    -2.642000000     5.571000000
H     0.445000000    -2.244000000     6.812000000
O     1.251000000     3.677000000     5.367000000
H     2.052000000     3.341000000     5.769000000
H     1.022000000     3.022000000     4.707000000
O    -1.246000000    -0.880000000     8.392000000
H    -1.569000000    -1.702000000     8.761000000
H    -0.556000000    -0.602000000     8.994000000
O     6.200000000     2.986000000     5.740000000
H     6.069000000     2.755000000     4.820000000
H     5.315000000     3.029000000     6.104000000
O    -3.747000000     2.393000000     4.887000000
H    -3.435000000     1.911000000     5.653000000
H    -2.960000000     2.551000000     4.366000000
O    -5.262000000     0.189000000     5.621000000
H    -4.986000000     1.031000000     5.259000000
H    -5.399000000    -0.368000000     4.855000000
O    -3.262000000     6.808000000     4.884000000
H    -2.596000000     7.326000000     5.336000000
H    -2.827000000     5.979000000     4.685000000
