215
-1458.34106
C    -1.654000000     5.437000000    -0.860000000
H    -2.525000000     5.097000000    -1.414000000
C    -0.422000000     4.912000000    -1.187000000
C     0.681000000     5.320000000    -0.412000000
H     1.670000000     4.965000000    -0.691000000
C    -0.136000000     3.766000000    -2.271000000
O    -1.213000000     3.738000000    -3.255000000
H    -0.261000000     2.771000000    -1.818000000
O     1.130000000     3.787000000    -2.973000000
C     1.873000000     2.673000000    -3.198000000
C     2.970000000     2.321000000    -2.367000000
H     3.264000000     3.057000000    -1.623000000
C     3.577000000     1.055000000    -2.542000000
O     4.507000000     0.607000000    -1.577000000
C     3.171000000     0.186000000    -3.558000000
C     3.880000000    -1.150000000    -3.868000000
H     3.837000000    -1.470000000    -4.911000000
C     3.319000000    -2.281000000    -2.974000000
C     2.271000000    -3.069000000    -3.400000000
H     1.761000000    -2.941000000    -4.351000000
H     4.941000000    -1.118000000    -3.613000000
C     2.141000000     0.575000000    -4.424000000
H     1.880000000    -0.110000000    -5.227000000
C     1.524000000     1.808000000    -4.267000000
C     0.368000000     2.080000000    -5.155000000
H     0.585000000     1.529000000    -6.073000000
H     0.351000000     3.159000000    -5.318000000
C    -0.925000000     1.682000000    -4.623000000
C    -1.354000000     0.378000000    -4.910000000
H    -0.804000000    -0.223000000    -5.630000000
C    -1.632000000     2.465000000    -3.696000000
C    -2.851000000     1.971000000    -3.189000000
H    -3.408000000     2.642000000    -2.541000000
C    -3.221000000     0.699000000    -3.425000000
O    -4.326000000     0.277000000    -2.777000000
C    -3.920000000    -0.405000000    -1.602000000
C    -4.417000000     0.261000000    -0.310000000
C    -4.181000000    -0.413000000     0.875000000
H    -3.554000000    -1.299000000     0.801000000
C    -5.004000000     1.522000000    -0.261000000
H    -5.160000000     2.085000000    -1.177000000
O    -4.188000000    -1.843000000    -1.769000000
H    -2.825000000    -0.390000000    -1.496000000
C    -2.522000000    -0.112000000    -4.286000000
C    -2.992000000    -1.577000000    -4.526000000
H    -2.684000000    -1.873000000    -5.530000000
H    -4.082000000    -1.641000000    -4.525000000
C    -2.454000000    -2.508000000    -3.433000000
C    -1.260000000    -3.144000000    -3.692000000
H    -0.693000000    -2.991000000    -4.607000000
C    -3.002000000    -2.573000000    -2.111000000
C    -2.457000000    -3.474000000    -1.199000000
H    -2.890000000    -3.543000000    -0.205000000
C    -1.356000000    -4.216000000    -1.553000000
O    -0.834000000    -4.899000000    -0.469000000
C     0.389000000    -4.475000000     0.176000000
C     0.346000000    -4.536000000     1.743000000
C    -0.881000000    -4.480000000     2.416000000
H    -1.781000000    -4.182000000     1.885000000
C     1.500000000    -4.667000000     2.457000000
H     2.448000000    -4.765000000     1.934000000
O     1.645000000    -5.027000000    -0.397000000
H     0.472000000    -3.418000000    -0.118000000
C    -0.680000000    -4.024000000    -2.769000000
C     0.593000000    -4.857000000    -3.167000000
H     0.722000000    -4.962000000    -4.246000000
H     0.615000000    -5.874000000    -2.769000000
C     1.698000000    -4.061000000    -2.590000000
C     2.288000000    -4.261000000    -1.358000000
C     3.323000000    -3.526000000    -0.914000000
H     3.721000000    -3.595000000     0.095000000
C     3.873000000    -2.486000000    -1.665000000
O     4.630000000    -1.587000000    -1.046000000
C     4.012000000    -0.409000000    -0.652000000
H     2.919000000    -0.523000000    -0.697000000
C     4.397000000    -0.110000000     0.842000000
C     3.995000000     1.152000000     1.307000000
H     3.514000000     1.820000000     0.597000000
C     4.981000000    -1.033000000     1.739000000
H     5.271000000    -2.022000000     1.393000000
C     4.945000000    -0.683000000     3.126000000
O     5.455000000    -1.647000000     3.989000000
C     4.533000000     0.551000000     3.588000000
H     4.443000000     0.796000000     4.643000000
C     4.141000000     1.543000000     2.646000000
O     3.551000000     2.576000000     3.204000000
C     3.666000000     3.879000000     2.675000000
C     2.588000000     4.478000000     2.147000000
H     1.663000000     3.974000000     1.880000000
C     4.862000000     4.587000000     2.779000000
H     5.676000000     4.054000000     3.264000000
C     5.031000000     5.885000000     2.317000000
H     5.925000000     6.495000000     2.415000000
C     3.877000000     6.472000000     1.858000000
H     3.927000000     7.518000000     1.567000000
C     2.680000000     5.829000000     1.802000000
O     1.552000000     6.589000000     1.395000000
C     0.532000000     6.137000000     0.695000000
C    -0.733000000     6.650000000     1.021000000
H    -0.781000000     7.392000000     1.813000000
C    -1.848000000     6.232000000     0.248000000
O    -3.051000000     6.855000000     0.415000000
C    -4.226000000     6.191000000     0.062000000
C    -4.503000000     4.923000000     0.605000000
H    -3.779000000     4.424000000     1.243000000
C    -5.152000000     6.753000000    -0.786000000
H    -4.956000000     7.745000000    -1.184000000
C    -6.336000000     6.114000000    -1.070000000
H    -7.013000000     6.651000000    -1.730000000
C    -6.729000000     4.946000000    -0.454000000
H    -7.680000000     4.510000000    -0.746000000
C    -5.771000000     4.322000000     0.370000000
O    -6.138000000     3.212000000     1.022000000
C    -5.402000000     2.029000000     0.972000000
C    -5.065000000     1.412000000     2.193000000
H    -5.367000000     1.899000000     3.117000000
C    -4.569000000     0.146000000     2.114000000
O    -4.269000000    -0.509000000     3.294000000
C    -4.453000000    -1.857000000     3.540000000
C    -3.288000000    -2.570000000     3.926000000
H    -2.356000000    -2.012000000     3.957000000
C    -5.661000000    -2.557000000     3.352000000
H    -6.462000000    -1.988000000     2.889000000
C    -5.694000000    -3.900000000     3.634000000
H    -6.627000000    -4.457000000     3.637000000
C    -4.526000000    -4.610000000     3.912000000
H    -4.607000000    -5.668000000     4.145000000
C    -3.313000000    -3.913000000     4.047000000
O    -2.157000000    -4.598000000     4.448000000
C    -0.948000000    -4.574000000     3.801000000
C     0.195000000    -4.891000000     4.565000000
H     0.049000000    -4.966000000     5.639000000
C     1.423000000    -5.001000000     3.836000000
O     2.536000000    -5.474000000     4.532000000
C     3.745000000    -4.919000000     4.197000000
C     4.787000000    -5.769000000     3.968000000
H     4.713000000    -6.838000000     4.153000000
C     6.042000000    -5.264000000     3.646000000
H     6.887000000    -5.948000000     3.647000000
C     6.230000000    -3.878000000     3.533000000
H     7.191000000    -3.461000000     3.243000000
C     5.164000000    -2.997000000     3.835000000
C     3.899000000    -3.534000000     4.174000000
H     3.027000000    -2.894000000     4.281000000
C    -0.043000000     0.075000000     2.163000000
H     0.149000000    -0.240000000     3.186000000
C     0.623000000    -0.615000000     1.169000000
H     1.304000000    -1.434000000     1.387000000
C     0.244000000    -0.426000000    -0.168000000
H     0.653000000    -1.032000000    -1.017000000
C    -0.635000000     0.643000000    -0.531000000
H    -1.020000000     0.820000000    -1.532000000
C    -0.962000000     1.552000000     0.489000000
H    -1.470000000     2.484000000     0.254000000
C    -0.777000000     1.258000000     1.887000000
C    -1.404000000     2.096000000     3.004000000
O    -1.941000000     3.179000000     2.783000000
O    -1.271000000     1.667000000     4.102000000
O    -2.533000000     2.644000000     6.404000000
H    -2.220000000     2.584000000     5.502000000
H    -1.778000000     2.396000000     6.937000000
O     0.195000000     0.157000000     5.865000000
H    -0.405000000    -0.457000000     6.288000000
H    -0.342000000     0.606000000     5.213000000
O    -4.713000000     3.599000000     7.959000000
H    -4.391000000     2.750000000     7.654000000
H    -3.946000000     4.021000000     8.346000000
O     0.118000000     7.631000000     4.703000000
H     0.802000000     7.279000000     5.272000000
H    -0.260000000     6.862000000     4.277000000
O    -4.035000000    -0.365000000     8.641000000
H    -3.428000000     0.123000000     9.197000000
H    -4.160000000     0.195000000     7.875000000
O    -6.762000000     3.809000000     4.621000000
H    -6.971000000     3.129000000     3.980000000
H    -5.808000000     3.880000000     4.593000000
O    -0.753000000     5.142000000     4.230000000
H    -1.111000000     4.730000000     3.444000000
H    -0.126000000     4.504000000     4.570000000
O    -0.373000000     1.828000000     7.881000000
H     0.118000000     2.445000000     8.423000000
H     0.257000000     1.535000000     7.222000000
O     2.957000000     4.195000000     6.592000000
H     3.537000000     3.435000000     6.551000000
H     2.388000000     4.103000000     5.828000000
O    -2.402000000     4.967000000     8.536000000
H    -1.852000000     4.207000000     8.726000000
H    -1.792000000     5.705000000     8.513000000
O    -4.338000000     8.181000000     4.299000000
H    -3.992000000     7.383000000     4.697000000
H    -3.561000000     8.674000000     4.036000000
O     2.992000000    -0.188000000     6.569000000
H     2.101000000    -0.188000000     6.219000000
H     3.132000000     0.711000000     6.867000000
O    -7.249000000     0.230000000     5.703000000
H    -6.297000000     0.146000000     5.645000000
H    -7.544000000    -0.617000000     6.038000000
O    -1.400000000    -2.580000000     6.718000000
H    -1.710000000    -2.874000000     5.861000000
H    -2.093000000    -2.837000000     7.325000000
O     1.083000000     3.212000000     4.704000000
H     1.632000000     2.777000000     4.052000000
H     0.318000000     2.644000000     4.790000000
O    -1.287000000     0.447000000    10.005000000
H    -1.078000000     0.976000000    10.776000000
H    -0.702000000     0.776000000     9.323000000
O    -4.041000000     3.880000000     4.101000000
H    -3.712000000     4.689000000     4.493000000
H    -3.309000000     3.552000000     3.579000000
O    -4.471000000     0.858000000     6.268000000
H    -3.955000000     1.659000000     6.178000000
H    -4.222000000     0.327000000     5.511000000
O    -2.972000000     5.836000000     5.711000000
H    -2.960000000     5.618000000     6.644000000
H    -2.071000000     5.696000000     5.421000000
