215
-1475.41045
C    -1.207000000     5.584000000    -1.561000000
H    -1.965000000     5.382000000    -2.314000000
C     0.060000000     5.036000000    -1.668000000
C     1.004000000     5.422000000    -0.696000000
H     2.039000000     5.090000000    -0.685000000
C     0.314000000     3.885000000    -2.606000000
O    -0.600000000     3.780000000    -3.711000000
H     0.197000000     2.983000000    -1.987000000
O     1.679000000     3.717000000    -3.117000000
C     2.185000000     2.471000000    -3.108000000
C     3.212000000     2.201000000    -2.166000000
H     3.350000000     2.868000000    -1.319000000
C     3.863000000     1.024000000    -2.152000000
O     4.622000000     0.659000000    -1.040000000
C     3.578000000     0.125000000    -3.220000000
C     4.392000000    -1.199000000    -3.200000000
H     4.544000000    -1.570000000    -4.216000000
C     3.807000000    -2.337000000    -2.343000000
C     2.928000000    -3.204000000    -2.942000000
H     2.783000000    -3.192000000    -4.019000000
H     5.394000000    -1.014000000    -2.806000000
C     2.706000000     0.358000000    -4.203000000
H     2.661000000    -0.282000000    -5.081000000
C     2.040000000     1.606000000    -4.162000000
C     1.095000000     1.927000000    -5.336000000
H     1.381000000     1.273000000    -6.162000000
H     1.185000000     2.958000000    -5.682000000
C    -0.234000000     1.659000000    -4.739000000
C    -0.750000000     0.365000000    -4.953000000
H    -0.141000000    -0.257000000    -5.605000000
C    -1.067000000     2.559000000    -4.084000000
C    -2.264000000     2.168000000    -3.582000000
H    -2.867000000     2.867000000    -3.007000000
C    -2.849000000     0.874000000    -3.820000000
O    -3.822000000     0.507000000    -2.990000000
C    -3.516000000    -0.400000000    -1.908000000
C    -4.263000000    -0.008000000    -0.635000000
C    -4.666000000    -0.931000000     0.348000000
H    -4.478000000    -1.985000000     0.158000000
C    -4.502000000     1.301000000    -0.322000000
H    -4.071000000     2.019000000    -1.015000000
O    -3.810000000    -1.777000000    -2.204000000
H    -2.457000000    -0.269000000    -1.643000000
C    -1.985000000    -0.039000000    -4.485000000
C    -2.364000000    -1.511000000    -4.749000000
H    -1.889000000    -1.743000000    -5.704000000
H    -3.442000000    -1.527000000    -4.928000000
C    -1.968000000    -2.445000000    -3.611000000
C    -0.768000000    -3.251000000    -3.752000000
H    -0.291000000    -3.201000000    -4.727000000
C    -2.694000000    -2.544000000    -2.386000000
C    -2.242000000    -3.410000000    -1.429000000
H    -2.710000000    -3.535000000    -0.456000000
C    -1.086000000    -4.209000000    -1.582000000
O    -0.780000000    -5.018000000    -0.480000000
C     0.289000000    -4.533000000     0.360000000
C    -0.047000000    -4.892000000     1.779000000
C    -1.359000000    -5.055000000     2.138000000
H    -2.177000000    -5.024000000     1.423000000
C     0.983000000    -5.048000000     2.716000000
H     2.004000000    -4.736000000     2.513000000
O     1.540000000    -4.980000000    -0.036000000
H     0.379000000    -3.439000000     0.291000000
C    -0.282000000    -4.114000000    -2.793000000
C     1.017000000    -4.867000000    -2.908000000
H     1.344000000    -5.011000000    -3.940000000
H     0.935000000    -5.822000000    -2.385000000
C     2.100000000    -4.078000000    -2.238000000
C     2.314000000    -4.179000000    -0.862000000
C     3.312000000    -3.434000000    -0.242000000
H     3.379000000    -3.569000000     0.835000000
C     4.013000000    -2.428000000    -0.947000000
O     4.725000000    -1.536000000    -0.217000000
C     4.099000000    -0.250000000     0.003000000
H     3.015000000    -0.378000000    -0.127000000
C     4.333000000     0.387000000     1.411000000
C     4.135000000     1.745000000     1.715000000
H     4.056000000     2.485000000     0.923000000
C     4.253000000    -0.572000000     2.433000000
H     4.265000000    -1.618000000     2.139000000
C     4.127000000    -0.198000000     3.750000000
O     3.922000000    -1.112000000     4.833000000
C     4.086000000     1.202000000     4.073000000
H     3.807000000     1.478000000     5.086000000
C     3.994000000     2.118000000     3.061000000
O     3.385000000     3.287000000     3.373000000
C     3.597000000     4.467000000     2.760000000
C     2.513000000     5.066000000     2.157000000
H     1.583000000     4.524000000     2.005000000
C     4.754000000     5.245000000     3.127000000
H     5.449000000     4.717000000     3.775000000
C     4.897000000     6.585000000     2.605000000
H     5.716000000     7.263000000     2.833000000
C     3.774000000     7.104000000     1.990000000
H     3.747000000     8.154000000     1.709000000
C     2.624000000     6.342000000     1.723000000
O     1.589000000     6.997000000     1.121000000
C     0.690000000     6.418000000     0.284000000
C    -0.569000000     7.027000000     0.287000000
H    -0.882000000     7.768000000     1.018000000
C    -1.528000000     6.585000000    -0.622000000
O    -2.868000000     7.020000000    -0.547000000
C    -3.967000000     6.181000000    -0.308000000
C    -3.876000000     4.996000000     0.354000000
H    -3.028000000     4.695000000     0.964000000
C    -5.151000000     6.546000000    -0.881000000
H    -5.222000000     7.510000000    -1.378000000
C    -6.276000000     5.806000000    -0.751000000
H    -7.181000000     6.181000000    -1.222000000
C    -6.199000000     4.528000000    -0.178000000
H    -7.119000000     3.950000000    -0.158000000
C    -5.030000000     4.172000000     0.457000000
O    -5.000000000     3.111000000     1.319000000
C    -5.075000000     1.775000000     0.861000000
C    -5.398000000     0.821000000     1.876000000
H    -5.884000000     1.131000000     2.798000000
C    -5.240000000    -0.546000000     1.527000000
O    -5.561000000    -1.383000000     2.594000000
C    -5.291000000    -2.711000000     2.476000000
C    -4.275000000    -3.300000000     3.251000000
H    -3.521000000    -2.733000000     3.790000000
C    -6.192000000    -3.574000000     1.913000000
H    -7.095000000    -3.251000000     1.401000000
C    -6.024000000    -4.955000000     1.939000000
H    -6.758000000    -5.573000000     1.429000000
C    -4.876000000    -5.524000000     2.489000000
H    -4.666000000    -6.588000000     2.559000000
C    -4.032000000    -4.673000000     3.174000000
O    -2.963000000    -5.179000000     3.984000000
C    -1.686000000    -5.228000000     3.442000000
C    -0.704000000    -5.459000000     4.421000000
H    -0.968000000    -5.627000000     5.463000000
C     0.624000000    -5.285000000     4.075000000
O     1.634000000    -5.312000000     5.053000000
C     2.785000000    -4.565000000     4.899000000
C     4.004000000    -5.200000000     4.833000000
H     4.100000000    -6.272000000     4.980000000
C     5.179000000    -4.507000000     4.491000000
H     6.113000000    -4.986000000     4.211000000
C     5.092000000    -3.112000000     4.445000000
H     5.971000000    -2.578000000     4.091000000
C     3.908000000    -2.450000000     4.673000000
C     2.736000000    -3.165000000     4.881000000
H     1.844000000    -2.607000000     5.153000000
C     0.416000000    -0.002000000     2.049000000
H     0.699000000    -0.145000000     3.089000000
C     0.595000000    -0.955000000     1.060000000
H     1.000000000    -1.921000000     1.349000000
C     0.346000000    -0.627000000    -0.271000000
H     0.645000000    -1.300000000    -1.066000000
C    -0.076000000     0.681000000    -0.650000000
H    -0.153000000     0.837000000    -1.722000000
C    -0.347000000     1.636000000     0.381000000
H    -0.674000000     2.649000000     0.161000000
C    -0.120000000     1.270000000     1.675000000
C    -0.404000000     2.254000000     2.784000000
O    -0.727000000     3.369000000     2.463000000
O    -0.404000000     1.930000000     3.941000000
O    -1.697000000     2.547000000     6.405000000
H    -1.255000000     2.425000000     5.565000000
H    -1.211000000     1.991000000     7.015000000
O     0.026000000     5.446000000     6.885000000
H    -0.865000000     5.147000000     7.066000000
H    -0.090000000     6.266000000     6.407000000
O    -1.276000000    -1.947000000     5.978000000
H    -1.247000000    -1.283000000     6.667000000
H    -1.758000000    -1.530000000     5.264000000
O    -3.728000000     0.357000000     8.917000000
H    -2.850000000     0.207000000     8.565000000
H    -3.882000000    -0.386000000     9.500000000
O    -0.141000000     6.889000000     4.578000000
H     0.588000000     6.339000000     4.289000000
H    -0.919000000     6.464000000     4.219000000
O    -2.847000000     5.059000000     6.862000000
H    -2.423000000     4.244000000     6.591000000
H    -3.208000000     4.865000000     7.727000000
O    -1.851000000     5.778000000     3.073000000
H    -1.250000000     5.163000000     2.650000000
H    -2.559000000     5.228000000     3.408000000
O     0.518000000     1.001000000     6.327000000
H     1.215000000     1.657000000     6.348000000
H     0.343000000     0.868000000     5.395000000
O     1.632000000     5.006000000     9.035000000
H     0.981000000     5.210000000     8.364000000
H     2.163000000     5.800000000     9.102000000
O    -4.120000000     7.250000000     5.446000000
H    -5.070000000     7.159000000     5.367000000
H    -3.856000000     6.524000000     6.011000000
O    -2.876000000     8.331000000     3.261000000
H    -2.410000000     7.649000000     2.776000000
H    -3.232000000     7.879000000     4.026000000
O     1.154000000    -2.004000000     8.327000000
H     0.469000000    -1.999000000     8.995000000
H     1.282000000    -1.081000000     8.107000000
O     1.879000000     3.399000000     6.009000000
H     1.476000000     3.232000000     5.156000000
H     1.284000000     4.016000000     6.437000000
O    -1.107000000    -0.101000000     8.173000000
H    -0.971000000    -0.793000000     8.821000000
H    -0.244000000     0.297000000     8.063000000
O     2.902000000     2.685000000     8.381000000
H     2.710000000     2.817000000     7.452000000
H     2.827000000     3.558000000     8.767000000
O    -5.007000000     2.599000000     5.921000000
H    -4.888000000     1.670000000     5.723000000
H    -4.498000000     3.054000000     5.251000000
O    -4.670000000    -0.004000000     5.591000000
H    -4.872000000    -0.883000000     5.912000000
H    -3.827000000    -0.099000000     5.148000000
O    -2.302000000    -0.032000000     4.243000000
H    -1.796000000     0.702000000     4.593000000
H    -2.487000000     0.215000000     3.337000000
O    -3.268000000     3.269000000     3.522000000
H    -3.352000000     3.192000000     2.571000000
H    -2.354000000     3.049000000     3.701000000
