215
-1447.21003
C    -0.236000000     5.627000000    -0.999000000
H    -1.010000000     5.611000000    -1.762000000
C     0.936000000     4.887000000    -1.161000000
C     1.939000000     5.013000000    -0.229000000
H     2.863000000     4.459000000    -0.375000000
C     0.979000000     3.719000000    -2.263000000
O    -0.004000000     3.852000000    -3.317000000
H     0.783000000     2.791000000    -1.706000000
O     2.278000000     3.543000000    -2.805000000
C     2.717000000     2.230000000    -3.021000000
C     3.605000000     1.653000000    -2.123000000
H     4.046000000     2.175000000    -1.277000000
C     3.997000000     0.310000000    -2.285000000
O     4.778000000    -0.285000000    -1.350000000
C     3.421000000    -0.527000000    -3.255000000
C     3.798000000    -1.989000000    -3.347000000
H     3.685000000    -2.369000000    -4.364000000
C     2.906000000    -2.838000000    -2.478000000
C     1.762000000    -3.464000000    -3.052000000
H     1.548000000    -3.289000000    -4.103000000
H     4.846000000    -2.281000000    -3.253000000
C     2.503000000     0.025000000    -4.107000000
H     2.151000000    -0.642000000    -4.890000000
C     2.230000000     1.416000000    -4.057000000
C     1.162000000     1.886000000    -4.997000000
H     1.214000000     1.323000000    -5.930000000
H     1.443000000     2.898000000    -5.298000000
C    -0.236000000     1.758000000    -4.443000000
C    -0.977000000     0.649000000    -4.713000000
H    -0.493000000    -0.117000000    -5.313000000
C    -0.740000000     2.754000000    -3.640000000
C    -1.895000000     2.474000000    -2.966000000
H    -2.417000000     3.208000000    -2.357000000
C    -2.667000000     1.345000000    -3.172000000
O    -3.824000000     1.164000000    -2.419000000
C    -3.748000000     0.204000000    -1.333000000
C    -4.384000000     0.892000000    -0.202000000
C    -4.786000000     0.061000000     0.827000000
H    -4.680000000    -1.020000000     0.818000000
C    -4.609000000     2.283000000    -0.056000000
H    -4.068000000     2.975000000    -0.697000000
O    -4.425000000    -1.007000000    -1.805000000
H    -2.697000000    -0.015000000    -1.095000000
C    -2.220000000     0.407000000    -4.126000000
C    -2.995000000    -0.882000000    -4.315000000
H    -2.758000000    -1.280000000    -5.304000000
H    -4.061000000    -0.667000000    -4.418000000
C    -2.760000000    -1.925000000    -3.335000000
C    -1.855000000    -2.970000000    -3.619000000
H    -1.237000000    -2.886000000    -4.510000000
C    -3.492000000    -2.018000000    -2.109000000
C    -3.258000000    -3.064000000    -1.257000000
H    -3.806000000    -3.046000000    -0.319000000
C    -2.246000000    -3.961000000    -1.453000000
O    -1.935000000    -4.755000000    -0.420000000
C    -0.682000000    -4.409000000     0.352000000
C    -0.971000000    -4.638000000     1.849000000
C    -2.190000000    -4.355000000     2.485000000
H    -2.941000000    -3.972000000     1.797000000
C     0.131000000    -5.014000000     2.678000000
H     1.048000000    -5.314000000     2.178000000
O     0.348000000    -5.236000000    -0.166000000
H    -0.442000000    -3.382000000     0.040000000
C    -1.547000000    -3.960000000    -2.670000000
C    -0.293000000    -4.873000000    -2.925000000
H    -0.268000000    -5.035000000    -4.004000000
H    -0.526000000    -5.850000000    -2.496000000
C     0.977000000    -4.332000000    -2.282000000
C     1.313000000    -4.614000000    -0.953000000
C     2.407000000    -4.009000000    -0.354000000
H     2.736000000    -4.300000000     0.640000000
C     3.158000000    -3.077000000    -1.106000000
O     4.200000000    -2.384000000    -0.490000000
C     4.073000000    -0.953000000    -0.277000000
H     2.994000000    -0.736000000    -0.256000000
C     4.514000000    -0.570000000     1.140000000
C     5.106000000     0.676000000     1.452000000
H     5.523000000     1.227000000     0.613000000
C     4.213000000    -1.409000000     2.170000000
H     3.666000000    -2.331000000     1.990000000
C     4.504000000    -1.027000000     3.493000000
O     4.198000000    -1.817000000     4.543000000
C     5.023000000     0.163000000     3.744000000
H     5.140000000     0.383000000     4.802000000
C     5.203000000     1.116000000     2.774000000
O     5.756000000     2.375000000     3.108000000
C     5.520000000     3.502000000     2.368000000
C     4.270000000     4.171000000     2.383000000
H     3.501000000     3.768000000     3.037000000
C     6.517000000     3.989000000     1.423000000
H     7.459000000     3.452000000     1.492000000
C     6.241000000     5.104000000     0.626000000
H     6.924000000     5.506000000    -0.118000000
C     5.100000000     5.847000000     0.809000000
H     4.875000000     6.749000000     0.244000000
C     4.082000000     5.386000000     1.638000000
O     2.842000000     6.042000000     1.650000000
C     1.751000000     5.894000000     0.818000000
C     0.547000000     6.604000000     1.013000000
H     0.452000000     7.338000000     1.809000000
C    -0.454000000     6.478000000     0.090000000
O    -1.594000000     7.144000000     0.181000000
C    -2.858000000     6.626000000    -0.026000000
C    -3.424000000     5.502000000     0.648000000
H    -2.828000000     4.994000000     1.402000000
C    -3.616000000     7.159000000    -1.084000000
H    -3.226000000     8.005000000    -1.644000000
C    -4.837000000     6.691000000    -1.421000000
H    -5.251000000     7.063000000    -2.354000000
C    -5.426000000     5.645000000    -0.722000000
H    -6.449000000     5.332000000    -0.916000000
C    -4.735000000     5.100000000     0.358000000
O    -5.219000000     4.204000000     1.265000000
C    -5.125000000     2.829000000     1.100000000
C    -5.571000000     1.981000000     2.097000000
H    -5.949000000     2.437000000     3.009000000
C    -5.359000000     0.594000000     1.967000000
O    -5.782000000    -0.082000000     3.027000000
C    -5.716000000    -1.456000000     3.044000000
C    -4.726000000    -2.164000000     3.738000000
H    -4.012000000    -1.682000000     4.401000000
C    -6.618000000    -2.181000000     2.301000000
H    -7.270000000    -1.532000000     1.721000000
C    -6.605000000    -3.592000000     2.213000000
H    -7.350000000    -4.162000000     1.664000000
C    -5.536000000    -4.213000000     2.947000000
H    -5.498000000    -5.298000000     2.987000000
C    -4.592000000    -3.547000000     3.670000000
O    -3.606000000    -4.204000000     4.412000000
C    -2.388000000    -4.505000000     3.794000000
C    -1.348000000    -4.959000000     4.551000000
H    -1.500000000    -5.123000000     5.615000000
C    -0.055000000    -5.230000000     4.065000000
O     0.971000000    -5.526000000     4.850000000
C     2.208000000    -4.996000000     4.451000000
C     3.164000000    -5.871000000     3.832000000
H     3.002000000    -6.940000000     3.727000000
C     4.384000000    -5.306000000     3.461000000
H     5.134000000    -5.956000000     3.020000000
C     4.609000000    -3.934000000     3.606000000
H     5.554000000    -3.501000000     3.287000000
C     3.761000000    -3.165000000     4.357000000
C     2.477000000    -3.655000000     4.650000000
H     1.771000000    -2.963000000     5.102000000
C     0.770000000    -0.174000000     2.017000000
H     1.159000000    -0.496000000     2.980000000
C     0.878000000    -1.091000000     0.971000000
H     1.302000000    -2.078000000     1.137000000
C     0.302000000    -0.754000000    -0.267000000
H     0.254000000    -1.532000000    -1.083000000
C    -0.190000000     0.453000000    -0.397000000
H    -0.611000000     0.710000000    -1.366000000
C    -0.220000000     1.418000000     0.626000000
H    -0.439000000     2.458000000     0.398000000
C     0.311000000     1.130000000     1.836000000
C     0.179000000     2.026000000     3.097000000
O     0.056000000     3.202000000     2.944000000
O     0.271000000     1.536000000     4.225000000
O    -3.473000000     4.681000000     5.479000000
H    -3.406000000     3.740000000     5.641000000
H    -3.039000000     5.085000000     6.231000000
O     0.031000000     3.204000000     8.971000000
H     0.955000000     2.956000000     8.964000000
H    -0.141000000     3.514000000     8.082000000
O     2.982000000     2.779000000     8.755000000
H     3.311000000     3.148000000     7.936000000
H     3.282000000     3.387000000     9.430000000
O    -2.203000000     0.558000000     4.998000000
H    -1.956000000    -0.298000000     5.349000000
H    -1.385000000     0.925000000     4.664000000
O     2.893000000     8.883000000     2.395000000
H     2.292000000     9.351000000     2.975000000
H     2.463000000     8.045000000     2.230000000
O    -1.530000000    -1.602000000     7.009000000
H    -0.845000000    -0.934000000     6.970000000
H    -1.282000000    -2.157000000     7.748000000
O    -0.293000000     3.342000000     6.250000000
H     0.032000000     4.096000000     5.759000000
H    -0.318000000     2.631000000     5.609000000
O    -2.509000000     6.357000000     7.326000000
H    -1.630000000     6.710000000     7.464000000
H    -2.619000000     5.708000000     8.020000000
O    -1.645000000     5.195000000     3.454000000
H    -1.162000000     4.440000000     3.116000000
H    -2.264000000     4.822000000     4.081000000
O     0.522000000     0.380000000     7.322000000
H    -0.228000000     0.973000000     7.382000000
H     1.223000000     0.919000000     6.955000000
O     1.529000000     5.744000000     7.237000000
H     1.501000000     5.863000000     6.287000000
H     2.419000000     5.438000000     7.414000000
O     4.539000000     4.223000000     6.836000000
H     5.225000000     3.886000000     6.260000000
H     4.286000000     5.059000000     6.444000000
O     1.370000000     4.839000000     4.378000000
H     0.838000000     4.280000000     3.812000000
H     1.851000000     5.404000000     3.773000000
O     2.376000000     2.225000000     5.909000000
H     2.399000000     3.181000000     5.867000000
H     1.754000000     1.970000000     5.228000000
O     2.137000000     0.516000000     9.721000000
H     1.752000000    -0.033000000     9.038000000
H     2.521000000     1.254000000     9.248000000
O     4.741000000     1.051000000     7.693000000
H     3.963000000     1.603000000     7.768000000
H     5.094000000     1.252000000     6.826000000
O    -5.883000000     5.384000000     4.333000000
H    -5.040000000     5.152000000     4.724000000
H    -5.707000000     6.191000000     3.849000000
O    -3.872000000     1.985000000     6.615000000
H    -3.404000000     1.407000000     6.012000000
H    -3.843000000     1.528000000     7.455000000
O    -1.154000000     8.029000000     4.943000000
H    -1.686000000     8.589000000     4.379000000
H    -1.354000000     7.138000000     4.655000000
