215
-1443.54621
C    -0.609000000     5.434000000    -1.245000000
H    -1.447000000     5.360000000    -1.933000000
C     0.525000000     4.637000000    -1.442000000
C     1.581000000     4.788000000    -0.577000000
H     2.502000000     4.256000000    -0.802000000
C     0.598000000     3.544000000    -2.478000000
O    -0.424000000     3.627000000    -3.424000000
H     0.514000000     2.544000000    -2.029000000
O     1.916000000     3.467000000    -3.152000000
C     2.454000000     2.272000000    -3.460000000
C     3.545000000     1.891000000    -2.617000000
H     4.020000000     2.661000000    -2.016000000
C     3.982000000     0.566000000    -2.574000000
O     4.899000000     0.171000000    -1.615000000
C     3.444000000    -0.387000000    -3.525000000
C     3.938000000    -1.799000000    -3.475000000
H     3.721000000    -2.090000000    -4.505000000
C     3.093000000    -2.604000000    -2.568000000
C     1.940000000    -3.212000000    -3.026000000
H     1.672000000    -3.063000000    -4.069000000
H     4.984000000    -1.909000000    -3.181000000
C     2.470000000     0.041000000    -4.389000000
H     2.126000000    -0.648000000    -5.156000000
C     1.850000000     1.296000000    -4.285000000
C     0.754000000     1.619000000    -5.247000000
H     0.984000000     1.073000000    -6.164000000
H     0.873000000     2.665000000    -5.540000000
C    -0.637000000     1.487000000    -4.619000000
C    -1.233000000     0.249000000    -4.804000000
H    -0.699000000    -0.550000000    -5.311000000
C    -1.142000000     2.447000000    -3.730000000
C    -2.327000000     2.251000000    -3.051000000
H    -2.636000000     2.953000000    -2.281000000
C    -2.933000000     1.020000000    -3.207000000
O    -4.122000000     0.807000000    -2.530000000
C    -4.089000000    -0.155000000    -1.412000000
C    -4.752000000     0.406000000    -0.128000000
C    -5.371000000    -0.419000000     0.806000000
H    -5.597000000    -1.444000000     0.526000000
C    -4.662000000     1.750000000     0.172000000
H    -4.122000000     2.321000000    -0.579000000
O    -4.627000000    -1.396000000    -1.803000000
H    -3.033000000    -0.306000000    -1.143000000
C    -2.471000000     0.077000000    -4.154000000
C    -3.271000000    -1.259000000    -4.344000000
H    -3.095000000    -1.704000000    -5.325000000
H    -4.319000000    -0.958000000    -4.289000000
C    -2.896000000    -2.213000000    -3.366000000
C    -1.747000000    -2.994000000    -3.528000000
H    -1.207000000    -2.928000000    -4.469000000
C    -3.629000000    -2.255000000    -2.130000000
C    -3.174000000    -3.014000000    -1.043000000
H    -3.724000000    -2.886000000    -0.114000000
C    -2.015000000    -3.814000000    -1.208000000
O    -1.619000000    -4.497000000    -0.140000000
C    -0.513000000    -3.988000000     0.615000000
C    -0.654000000    -4.113000000     2.096000000
C    -1.897000000    -4.091000000     2.661000000
H    -2.776000000    -4.055000000     2.022000000
C     0.478000000    -4.152000000     2.864000000
H     1.481000000    -3.969000000     2.488000000
O     0.692000000    -4.551000000     0.160000000
H    -0.386000000    -2.911000000     0.429000000
C    -1.347000000    -3.826000000    -2.429000000
C    -0.107000000    -4.604000000    -2.612000000
H     0.148000000    -4.817000000    -3.652000000
H    -0.056000000    -5.492000000    -1.978000000
C     1.107000000    -3.911000000    -2.159000000
C     1.471000000    -3.929000000    -0.807000000
C     2.621000000    -3.356000000    -0.339000000
H     2.815000000    -3.305000000     0.729000000
C     3.444000000    -2.731000000    -1.232000000
O     4.475000000    -1.950000000    -0.734000000
C     4.367000000    -0.573000000    -0.540000000
H     3.285000000    -0.380000000    -0.598000000
C     4.800000000    -0.150000000     0.882000000
C     5.095000000     1.160000000     1.178000000
H     4.926000000     1.974000000     0.477000000
C     4.987000000    -1.098000000     1.870000000
H     4.835000000    -2.150000000     1.647000000
C     5.337000000    -0.846000000     3.203000000
O     5.525000000    -1.840000000     4.084000000
C     5.644000000     0.467000000     3.504000000
H     5.948000000     0.748000000     4.509000000
C     5.571000000     1.455000000     2.545000000
O     5.890000000     2.782000000     2.913000000
C     5.546000000     3.839000000     2.081000000
C     4.248000000     4.309000000     2.199000000
H     3.616000000     3.864000000     2.963000000
C     6.333000000     4.337000000     1.048000000
H     7.390000000     4.088000000     0.997000000
C     5.927000000     5.358000000     0.249000000
H     6.549000000     5.741000000    -0.555000000
C     4.603000000     5.730000000     0.328000000
H     4.294000000     6.536000000    -0.333000000
C     3.722000000     5.266000000     1.333000000
O     2.512000000     5.844000000     1.466000000
C     1.477000000     5.715000000     0.502000000
C     0.295000000     6.423000000     0.748000000
H     0.204000000     7.085000000     1.605000000
C    -0.740000000     6.302000000    -0.177000000
O    -1.906000000     6.980000000     0.056000000
C    -3.103000000     6.369000000    -0.013000000
C    -3.462000000     5.343000000     0.853000000
H    -2.903000000     5.137000000     1.762000000
C    -3.821000000     6.646000000    -1.099000000
H    -3.360000000     7.250000000    -1.877000000
C    -4.958000000     5.873000000    -1.319000000
H    -5.484000000     5.896000000    -2.270000000
C    -5.359000000     4.883000000    -0.421000000
H    -6.297000000     4.351000000    -0.559000000
C    -4.639000000     4.629000000     0.735000000
O    -5.025000000     3.664000000     1.617000000
C    -5.186000000     2.370000000     1.327000000
C    -5.739000000     1.450000000     2.222000000
H    -6.136000000     1.829000000     3.161000000
C    -5.915000000     0.098000000     1.935000000
O    -6.415000000    -0.688000000     2.947000000
C    -6.009000000    -2.019000000     3.287000000
C    -4.710000000    -2.312000000     3.646000000
H    -3.983000000    -1.505000000     3.594000000
C    -7.039000000    -2.984000000     3.291000000
H    -8.045000000    -2.709000000     2.984000000
C    -6.694000000    -4.247000000     3.607000000
H    -7.441000000    -5.034000000     3.658000000
C    -5.442000000    -4.624000000     4.088000000
H    -5.332000000    -5.619000000     4.512000000
C    -4.458000000    -3.633000000     4.113000000
O    -3.305000000    -4.101000000     4.665000000
C    -2.046000000    -4.200000000     4.056000000
C    -0.918000000    -4.259000000     4.847000000
H    -1.103000000    -4.227000000     5.918000000
C     0.322000000    -4.174000000     4.241000000
O     1.436000000    -4.115000000     5.048000000
C     2.723000000    -4.152000000     4.644000000
C     3.201000000    -5.323000000     4.024000000
H     2.564000000    -6.195000000     3.899000000
C     4.359000000    -5.355000000     3.317000000
H     4.679000000    -6.208000000     2.723000000
C     5.214000000    -4.153000000     3.330000000
H     6.166000000    -4.072000000     2.813000000
C     4.793000000    -3.049000000     4.071000000
C     3.551000000    -3.063000000     4.745000000
H     3.241000000    -2.164000000     5.272000000
C     1.194000000     1.054000000     2.162000000
H     2.074000000     0.745000000     2.719000000
C     0.859000000     0.257000000     1.090000000
H     1.383000000    -0.684000000     0.942000000
C    -0.173000000     0.545000000     0.306000000
H    -0.497000000    -0.078000000    -0.495000000
C    -0.813000000     1.784000000     0.527000000
H    -1.603000000     2.104000000    -0.147000000
C    -0.418000000     2.634000000     1.550000000
H    -0.934000000     3.590000000     1.531000000
C     0.497000000     2.268000000     2.497000000
C     0.736000000     3.035000000     3.767000000
O     0.259000000     4.123000000     3.922000000
O     1.439000000     2.615000000     4.717000000
O    -3.244000000     2.992000000     4.066000000
H    -2.689000000     2.246000000     4.295000000
H    -3.748000000     2.692000000     3.310000000
O     1.357000000     6.441000000     3.913000000
H     0.911000000     5.595000000     3.882000000
H     2.186000000     6.260000000     4.355000000
O    -2.236000000     2.852000000     7.147000000
H    -2.341000000     3.079000000     8.071000000
H    -2.814000000     3.458000000     6.684000000
O     4.123000000     3.042000000     8.240000000
H     3.424000000     3.564000000     7.848000000
H     4.690000000     3.683000000     8.669000000
O     0.034000000    -1.339000000     6.270000000
H     0.005000000    -0.535000000     6.790000000
H    -0.771000000    -1.803000000     6.500000000
O     4.624000000     8.102000000     3.198000000
H     4.208000000     7.616000000     2.485000000
H     4.111000000     8.907000000     3.270000000
O     0.474000000     8.904000000     3.318000000
H     1.171000000     9.538000000     3.487000000
H     0.916000000     8.055000000     3.318000000
O    -0.036000000     1.349000000     7.039000000
H    -0.831000000     1.824000000     7.280000000
H     0.455000000     1.963000000     6.494000000
O    -1.889000000     6.812000000     8.822000000
H    -2.786000000     6.478000000     8.808000000
H    -1.402000000     6.215000000     8.254000000
O    -2.084000000     5.476000000     4.280000000
H    -1.212000000     5.132000000     4.085000000
H    -2.639000000     4.698000000     4.342000000
O     2.467000000     0.511000000     5.599000000
H     1.678000000     0.033000000     5.853000000
H     2.143000000     1.254000000     5.089000000
O    -0.083000000     5.357000000     6.733000000
H    -0.352000000     5.244000000     5.821000000
H     0.736000000     4.867000000     6.803000000
O     5.184000000     1.035000000     6.863000000
H     4.796000000     1.806000000     7.276000000
H     4.591000000     0.825000000     6.142000000
O     2.276000000     4.168000000     6.487000000
H     2.030000000     3.494000000     5.855000000
H     2.820000000     4.778000000     5.988000000
O     0.994000000     0.659000000     9.417000000
H     0.502000000     0.556000000     8.602000000
H     1.882000000     0.876000000     9.135000000
O     3.855000000     5.977000000     5.074000000
H     4.165000000     6.669000000     4.490000000
H     4.649000000     5.641000000     5.490000000
O    -3.199000000     0.310000000     6.301000000
H    -2.592000000     0.086000000     5.595000000
H    -2.712000000     0.924000000     6.850000000
O    -1.358000000     0.408000000     3.998000000
H    -1.044000000     0.421000000     3.094000000
H    -1.000000000    -0.401000000     4.364000000
O    -2.257000000     8.294000000     3.732000000
H    -2.220000000     7.361000000     3.944000000
H    -1.366000000     8.514000000     3.461000000
