215
-1459.40616
C    -2.058000000     4.646000000    -0.896000000
H    -2.742000000     4.443000000    -1.716000000
C    -0.690000000     4.315000000    -0.961000000
C     0.074000000     4.580000000     0.159000000
H     1.065000000     4.168000000     0.330000000
C    -0.141000000     3.362000000    -2.021000000
O    -0.981000000     3.345000000    -3.240000000
H    -0.195000000     2.318000000    -1.676000000
O     1.178000000     3.723000000    -2.382000000
C     2.123000000     2.760000000    -2.712000000
C     3.164000000     2.635000000    -1.748000000
H     3.276000000     3.306000000    -0.900000000
C     3.996000000     1.506000000    -1.850000000
O     4.878000000     1.269000000    -0.794000000
C     3.902000000     0.709000000    -2.999000000
C     4.821000000    -0.548000000    -2.934000000
H     5.080000000    -0.929000000    -3.924000000
C     4.148000000    -1.619000000    -2.070000000
C     3.163000000    -2.347000000    -2.679000000
H     2.895000000    -2.166000000    -3.717000000
H     5.801000000    -0.347000000    -2.495000000
C     3.016000000     0.997000000    -4.082000000
H     2.881000000     0.306000000    -4.910000000
C     2.066000000     1.992000000    -3.919000000
C     1.096000000     2.191000000    -4.970000000
H     1.499000000     1.724000000    -5.872000000
H     1.098000000     3.264000000    -5.174000000
C    -0.343000000     1.646000000    -4.736000000
C    -0.587000000     0.296000000    -5.040000000
H     0.224000000    -0.287000000    -5.468000000
C    -1.295000000     2.274000000    -3.954000000
C    -2.498000000     1.660000000    -3.649000000
H    -3.198000000     2.176000000    -2.997000000
C    -2.758000000     0.409000000    -4.056000000
O    -3.895000000    -0.225000000    -3.599000000
C    -3.787000000    -1.014000000    -2.416000000
C    -4.916000000    -0.778000000    -1.356000000
C    -5.235000000    -1.788000000    -0.421000000
H    -4.659000000    -2.702000000    -0.537000000
C    -5.337000000     0.566000000    -1.157000000
H    -5.105000000     1.232000000    -1.984000000
O    -3.672000000    -2.382000000    -2.832000000
H    -2.878000000    -0.884000000    -1.810000000
C    -1.782000000    -0.277000000    -4.788000000
C    -2.032000000    -1.724000000    -5.147000000
H    -1.432000000    -1.942000000    -6.033000000
H    -3.041000000    -1.940000000    -5.507000000
C    -1.570000000    -2.546000000    -3.904000000
C    -0.326000000    -3.035000000    -3.838000000
H     0.451000000    -2.728000000    -4.533000000
C    -2.439000000    -2.852000000    -2.816000000
C    -2.070000000    -3.699000000    -1.772000000
H    -2.812000000    -4.017000000    -1.044000000
C    -0.731000000    -4.064000000    -1.705000000
O    -0.377000000    -4.692000000    -0.519000000
C     0.677000000    -4.106000000     0.355000000
C     0.462000000    -4.171000000     1.830000000
C    -0.840000000    -4.128000000     2.259000000
H    -1.607000000    -3.961000000     1.507000000
C     1.487000000    -4.233000000     2.812000000
H     2.516000000    -4.398000000     2.504000000
O     1.978000000    -4.512000000    -0.090000000
H     0.634000000    -3.013000000     0.232000000
C     0.164000000    -3.782000000    -2.761000000
C     1.607000000    -4.252000000    -2.843000000
H     1.904000000    -4.338000000    -3.891000000
H     1.651000000    -5.269000000    -2.449000000
C     2.533000000    -3.356000000    -2.075000000
C     2.795000000    -3.586000000    -0.675000000
C     3.740000000    -2.808000000     0.003000000
H     3.865000000    -2.875000000     1.081000000
C     4.336000000    -1.764000000    -0.667000000
O     5.118000000    -0.891000000     0.042000000
C     4.489000000     0.406000000     0.232000000
H     3.391000000     0.356000000     0.183000000
C     4.844000000     0.851000000     1.639000000
C     4.883000000     2.248000000     1.979000000
H     4.627000000     3.013000000     1.251000000
C     5.019000000    -0.116000000     2.669000000
H     4.927000000    -1.176000000     2.444000000
C     5.166000000     0.312000000     3.959000000
O     5.413000000    -0.656000000     4.892000000
C     5.142000000     1.696000000     4.300000000
H     5.139000000     2.032000000     5.334000000
C     4.920000000     2.614000000     3.327000000
O     4.775000000     3.965000000     3.596000000
C     3.960000000     4.900000000     3.066000000
C     2.555000000     4.713000000     3.032000000
H     2.186000000     3.815000000     3.520000000
C     4.486000000     6.060000000     2.508000000
H     5.556000000     6.248000000     2.474000000
C     3.549000000     6.974000000     2.039000000
H     3.855000000     7.876000000     1.514000000
C     2.195000000     6.774000000     1.848000000
H     1.503000000     7.519000000     1.462000000
C     1.679000000     5.657000000     2.440000000
O     0.331000000     5.435000000     2.463000000
C    -0.444000000     5.291000000     1.243000000
C    -1.759000000     5.703000000     1.268000000
H    -2.120000000     6.273000000     2.121000000
C    -2.569000000     5.403000000     0.172000000
O    -3.865000000     5.836000000     0.168000000
C    -4.976000000     5.204000000    -0.336000000
C    -5.252000000     3.862000000    -0.116000000
H    -4.516000000     3.235000000     0.381000000
C    -5.914000000     5.934000000    -1.043000000
H    -5.639000000     6.954000000    -1.297000000
C    -7.158000000     5.455000000    -1.362000000
H    -7.830000000     6.063000000    -1.961000000
C    -7.438000000     4.119000000    -1.086000000
H    -8.397000000     3.654000000    -1.301000000
C    -6.471000000     3.306000000    -0.475000000
O    -6.888000000     2.031000000    -0.034000000
C    -6.259000000     0.838000000    -0.152000000
C    -6.637000000    -0.213000000     0.721000000
H    -7.401000000    -0.032000000     1.473000000
C    -5.999000000    -1.428000000     0.684000000
O    -6.322000000    -2.331000000     1.659000000
C    -5.563000000    -3.404000000     1.922000000
C    -4.327000000    -3.150000000     2.555000000
H    -4.125000000    -2.128000000     2.866000000
C    -5.985000000    -4.643000000     1.636000000
H    -6.907000000    -4.864000000     1.103000000
C    -5.183000000    -5.725000000     1.985000000
H    -5.481000000    -6.760000000     1.838000000
C    -3.986000000    -5.567000000     2.688000000
H    -3.400000000    -6.427000000     3.001000000
C    -3.542000000    -4.243000000     2.976000000
O    -2.481000000    -4.062000000     3.872000000
C    -1.159000000    -4.156000000     3.582000000
C    -0.152000000    -4.139000000     4.556000000
H    -0.509000000    -4.161000000     5.582000000
C     1.165000000    -4.238000000     4.161000000
O     2.112000000    -4.283000000     5.172000000
C     3.436000000    -3.844000000     4.958000000
C     4.491000000    -4.769000000     4.846000000
H     4.220000000    -5.821000000     4.840000000
C     5.788000000    -4.321000000     4.751000000
H     6.615000000    -5.012000000     4.608000000
C     6.099000000    -2.927000000     4.750000000
H     7.138000000    -2.614000000     4.690000000
C     5.050000000    -2.053000000     4.790000000
C     3.746000000    -2.480000000     4.948000000
H     2.908000000    -1.790000000     4.999000000
C    -0.067000000    -0.339000000     2.368000000
H     0.478000000    -0.662000000     3.251000000
C     0.477000000    -0.689000000     1.129000000
H     1.457000000    -1.150000000     1.034000000
C    -0.152000000    -0.251000000    -0.053000000
H     0.232000000    -0.568000000    -0.992000000
C    -1.251000000     0.579000000    -0.016000000
H    -1.678000000     0.830000000    -0.984000000
C    -1.782000000     0.899000000     1.207000000
H    -2.574000000     1.635000000     1.313000000
C    -1.264000000     0.407000000     2.406000000
C    -1.887000000     0.817000000     3.700000000
O    -2.918000000     1.484000000     3.629000000
O    -1.440000000     0.505000000     4.800000000
O    -4.331000000     5.096000000     6.163000000
H    -5.127000000     5.501000000     5.819000000
H    -3.748000000     5.034000000     5.406000000
O    -2.145000000    -1.731000000     5.811000000
H    -1.973000000    -2.210000000     5.001000000
H    -2.052000000    -0.810000000     5.569000000
O    -4.139000000     0.138000000     7.867000000
H    -4.195000000     0.533000000     8.737000000
H    -3.636000000     0.767000000     7.350000000
O    -1.520000000    -1.444000000     8.578000000
H    -2.231000000    -1.935000000     8.989000000
H    -1.687000000    -1.521000000     7.638000000
O    -0.282000000     0.272000000    10.223000000
H    -0.641000000    -0.522000000     9.827000000
H    -0.858000000     0.974000000     9.920000000
O    -2.408000000     2.148000000     6.694000000
H    -2.328000000     1.714000000     5.845000000
H    -2.970000000     2.904000000     6.525000000
O    -6.416000000     1.679000000     6.870000000
H    -5.852000000     1.781000000     6.103000000
H    -5.828000000     1.379000000     7.562000000
O    -3.304000000     5.093000000     8.530000000
H    -2.536000000     5.660000000     8.464000000
H    -3.726000000     5.160000000     7.673000000
O     3.728000000     0.889000000     7.196000000
H     3.008000000     0.905000000     6.566000000
H     3.414000000     1.417000000     7.931000000
O    -2.755000000     4.163000000     4.091000000
H    -1.833000000     4.153000000     3.835000000
H    -3.053000000     3.265000000     3.948000000
O    -1.851000000     2.797000000     9.348000000
H    -2.336000000     3.617000000     9.252000000
H    -2.342000000     2.165000000     8.822000000
O    -4.912000000    -2.175000000     6.403000000
H    -5.130000000    -1.381000000     6.891000000
H    -3.975000000    -2.095000000     6.223000000
O     0.572000000     3.817000000     6.986000000
H     0.471000000     2.865000000     6.977000000
H    -0.221000000     4.138000000     7.415000000
O     0.683000000     0.910000000     6.520000000
H     0.358000000     0.373000000     7.243000000
H     0.127000000     0.674000000     5.777000000
O    -7.514000000    -1.601000000     4.994000000
H    -7.583000000    -0.658000000     5.141000000
H    -6.633000000    -1.826000000     5.294000000
O    -5.924000000     4.260000000     3.016000000
H    -6.375000000     4.144000000     2.180000000
H    -5.439000000     5.079000000     2.914000000
O    -5.318000000     2.265000000     4.588000000
H    -4.579000000     1.776000000     4.227000000
H    -5.408000000     3.024000000     4.011000000
O    -8.090000000     1.838000000     4.226000000
H    -8.555000000     1.852000000     5.062000000
H    -7.186000000     2.060000000     4.451000000
O     0.524000000     6.460000000     6.136000000
H     0.359000000     5.582000000     6.478000000
H     0.121000000     7.046000000     6.776000000
