215
-1450.38136
C    -2.339000000     4.938000000    -0.678000000
H    -3.017000000     4.406000000    -1.340000000
C    -0.921000000     4.748000000    -0.840000000
C    -0.064000000     5.494000000    -0.058000000
H     1.016000000     5.473000000    -0.178000000
C    -0.371000000     3.822000000    -1.914000000
O    -1.214000000     3.800000000    -3.062000000
H    -0.355000000     2.825000000    -1.451000000
O     0.926000000     4.188000000    -2.395000000
C     1.819000000     3.292000000    -2.738000000
C     2.849000000     3.035000000    -1.853000000
H     2.965000000     3.603000000    -0.934000000
C     3.710000000     1.953000000    -2.013000000
O     4.454000000     1.596000000    -0.926000000
C     3.607000000     1.113000000    -3.143000000
C     4.470000000    -0.151000000    -3.347000000
H     4.557000000    -0.439000000    -4.397000000
C     3.929000000    -1.353000000    -2.596000000
C     3.225000000    -2.329000000    -3.255000000
H     2.885000000    -2.231000000    -4.283000000
H     5.474000000     0.126000000    -3.020000000
C     2.560000000     1.358000000    -4.020000000
H     2.406000000     0.579000000    -4.762000000
C     1.709000000     2.432000000    -3.865000000
C     0.705000000     2.667000000    -4.876000000
H     1.015000000     2.172000000    -5.799000000
H     0.592000000     3.716000000    -5.161000000
C    -0.657000000     2.021000000    -4.509000000
C    -0.951000000     0.754000000    -5.001000000
H    -0.240000000     0.172000000    -5.581000000
C    -1.487000000     2.630000000    -3.614000000
C    -2.696000000     2.013000000    -3.222000000
H    -3.435000000     2.435000000    -2.545000000
C    -2.966000000     0.688000000    -3.608000000
O    -4.008000000     0.103000000    -2.919000000
C    -3.697000000    -0.813000000    -1.866000000
C    -4.586000000    -0.671000000    -0.592000000
C    -4.810000000    -1.747000000     0.206000000
H    -4.489000000    -2.747000000    -0.073000000
C    -5.110000000     0.543000000    -0.212000000
H    -4.830000000     1.413000000    -0.801000000
O    -3.610000000    -2.148000000    -2.402000000
H    -2.642000000    -0.617000000    -1.625000000
C    -2.045000000     0.015000000    -4.509000000
C    -2.184000000    -1.402000000    -4.901000000
H    -1.678000000    -1.570000000    -5.854000000
H    -3.228000000    -1.695000000    -5.034000000
C    -1.642000000    -2.360000000    -3.875000000
C    -0.366000000    -2.847000000    -4.079000000
H     0.183000000    -2.525000000    -4.960000000
C    -2.349000000    -2.687000000    -2.693000000
C    -1.742000000    -3.501000000    -1.712000000
H    -2.133000000    -3.625000000    -0.705000000
C    -0.461000000    -4.028000000    -1.962000000
O     0.088000000    -4.770000000    -0.913000000
C     1.136000000    -4.256000000    -0.148000000
C     1.004000000    -4.411000000     1.393000000
C    -0.248000000    -4.127000000     1.986000000
H    -1.148000000    -3.943000000     1.404000000
C     2.083000000    -4.706000000     2.288000000
H     3.083000000    -4.928000000     1.924000000
O     2.455000000    -4.656000000    -0.583000000
H     1.038000000    -3.177000000    -0.335000000
C     0.223000000    -3.764000000    -3.136000000
C     1.662000000    -4.298000000    -3.351000000
H     1.763000000    -4.328000000    -4.438000000
H     1.836000000    -5.344000000    -3.091000000
C     2.758000000    -3.482000000    -2.653000000
C     3.158000000    -3.757000000    -1.349000000
C     4.033000000    -2.920000000    -0.663000000
H     4.178000000    -2.965000000     0.414000000
C     4.307000000    -1.724000000    -1.293000000
O     4.940000000    -0.733000000    -0.516000000
C     4.139000000     0.398000000    -0.177000000
H     3.100000000     0.066000000    -0.314000000
C     4.035000000     0.616000000     1.288000000
C     3.154000000     1.629000000     1.664000000
H     2.623000000     2.090000000     0.835000000
C     4.631000000    -0.209000000     2.221000000
H     5.238000000    -1.064000000     1.938000000
C     4.391000000     0.035000000     3.580000000
O     5.013000000    -0.610000000     4.636000000
C     3.591000000     1.122000000     3.964000000
H     3.621000000     1.469000000     4.993000000
C     2.867000000     1.863000000     3.009000000
O     1.984000000     2.962000000     3.321000000
C     2.337000000     4.254000000     2.988000000
C     1.263000000     5.043000000     2.687000000
H     0.252000000     4.675000000     2.845000000
C     3.607000000     4.672000000     2.632000000
H     4.430000000     3.963000000     2.592000000
C     3.785000000     5.975000000     2.172000000
H     4.777000000     6.336000000     1.914000000
C     2.699000000     6.821000000     2.060000000
H     2.925000000     7.829000000     1.720000000
C     1.428000000     6.364000000     2.303000000
O     0.332000000     6.994000000     1.832000000
C    -0.565000000     6.331000000     0.922000000
C    -1.902000000     6.557000000     1.048000000
H    -2.332000000     7.242000000     1.774000000
C    -2.760000000     5.900000000     0.204000000
O    -4.167000000     6.128000000     0.417000000
C    -5.032000000     5.097000000     0.027000000
C    -5.299000000     4.038000000     0.865000000
H    -4.747000000     3.983000000     1.800000000
C    -5.640000000     5.195000000    -1.250000000
H    -5.466000000     6.032000000    -1.920000000
C    -6.574000000     4.238000000    -1.566000000
H    -7.122000000     4.379000000    -2.494000000
C    -6.905000000     3.194000000    -0.722000000
H    -7.684000000     2.526000000    -1.079000000
C    -6.227000000     3.087000000     0.531000000
O    -6.296000000     1.911000000     1.306000000
C    -5.898000000     0.681000000     0.884000000
C    -6.207000000    -0.440000000     1.660000000
H    -6.908000000    -0.432000000     2.491000000
C    -5.571000000    -1.674000000     1.340000000
O    -5.983000000    -2.789000000     1.954000000
C    -5.031000000    -3.727000000     2.360000000
C    -3.819000000    -3.417000000     2.917000000
H    -3.494000000    -2.410000000     3.167000000
C    -5.341000000    -5.071000000     2.131000000
H    -6.311000000    -5.246000000     1.672000000
C    -4.466000000    -6.064000000     2.460000000
H    -4.732000000    -7.085000000     2.196000000
C    -3.176000000    -5.771000000     2.969000000
H    -2.574000000    -6.622000000     3.275000000
C    -2.885000000    -4.410000000     3.266000000
O    -1.710000000    -4.008000000     3.907000000
C    -0.434000000    -4.151000000     3.435000000
C     0.605000000    -4.400000000     4.257000000
H     0.534000000    -4.509000000     5.336000000
C     1.848000000    -4.686000000     3.645000000
O     2.921000000    -4.869000000     4.480000000
C     4.041000000    -4.124000000     4.536000000
C     5.306000000    -4.720000000     4.857000000
H     5.410000000    -5.792000000     5.009000000
C     6.401000000    -3.947000000     5.067000000
H     7.357000000    -4.422000000     5.273000000
C     6.303000000    -2.559000000     4.958000000
H     7.159000000    -1.898000000     5.073000000
C     5.069000000    -1.946000000     4.689000000
C     3.976000000    -2.730000000     4.502000000
H     2.992000000    -2.297000000     4.348000000
C     0.290000000    -0.642000000     2.250000000
H     0.635000000    -0.967000000     3.228000000
C     0.980000000    -1.101000000     1.133000000
H     1.859000000    -1.716000000     1.311000000
C     0.567000000    -0.692000000    -0.143000000
H     1.159000000    -0.999000000    -1.022000000
C    -0.461000000     0.230000000    -0.347000000
H    -0.732000000     0.552000000    -1.349000000
C    -1.274000000     0.623000000     0.804000000
H    -2.152000000     1.257000000     0.705000000
C    -0.892000000     0.137000000     2.083000000
C    -1.694000000     0.553000000     3.277000000
O    -2.571000000     1.350000000     3.147000000
O    -1.572000000     0.022000000     4.355000000
O    -0.517000000    -1.855000000     5.633000000
H    -0.840000000    -2.610000000     5.142000000
H    -0.888000000    -1.097000000     5.180000000
O    -0.317000000    -0.489000000     8.369000000
H    -0.179000000    -0.792000000     7.471000000
H    -0.458000000     0.454000000     8.285000000
O    -2.897000000    -1.076000000     9.014000000
H    -2.092000000    -0.936000000     8.515000000
H    -3.586000000    -0.700000000     8.466000000
O     2.102000000    -2.003000000     6.902000000
H     2.602000000    -2.802000000     7.070000000
H     1.389000000    -2.283000000     6.328000000
O    -3.374000000    -0.340000000     6.122000000
H    -2.774000000    -0.139000000     5.404000000
H    -4.239000000    -0.365000000     5.712000000
O    -5.507000000     1.535000000     7.612000000
H    -5.515000000     0.580000000     7.672000000
H    -5.086000000     1.823000000     8.422000000
O    -2.669000000     3.601000000     7.634000000
H    -3.430000000     4.164000000     7.776000000
H    -2.867000000     3.129000000     6.826000000
O    -2.380000000     3.191000000     4.882000000
H    -2.436000000     2.448000000     4.282000000
H    -3.162000000     3.710000000     4.696000000
O    -0.257000000     2.592000000     9.356000000
H    -0.604000000     2.745000000    10.235000000
H    -0.906000000     2.982000000     8.771000000
O    -3.435000000    -2.911000000     6.600000000
H    -3.804000000    -2.057000000     6.375000000
H    -2.493000000    -2.809000000     6.461000000
O     2.033000000     3.642000000     6.191000000
H     1.593000000     2.805000000     6.340000000
H     1.379000000     4.181000000     5.747000000
O    -0.256000000     1.434000000     6.216000000
H    -0.545000000     0.957000000     5.438000000
H    -0.654000000     2.300000000     6.128000000
O    -6.580000000    -2.615000000     4.892000000
H    -6.727000000    -2.785000000     3.962000000
H    -6.153000000    -3.409000000     5.216000000
O    -4.352000000     4.987000000     4.571000000
H    -4.383000000     5.849000000     4.987000000
H    -5.085000000     4.508000000     4.958000000
O    -5.011000000     1.225000000     3.927000000
H    -4.063000000     1.194000000     3.799000000
H    -5.367000000     1.361000000     3.049000000
O    -6.441000000     3.327000000     5.910000000
H    -7.014000000     3.550000000     6.644000000
H    -5.903000000     2.606000000     6.237000000
O    -7.187000000     0.074000000     5.211000000
H    -6.471000000     0.681000000     5.028000000
H    -6.760000000    -0.777000000     5.314000000
O     2.623000000     0.728000000     7.501000000
H     1.855000000     1.054000000     7.970000000
H     2.272000000     0.091000000     6.879000000
O    -0.523000000     5.219000000     5.379000000
H    -1.181000000     4.718000000     4.897000000
H    -1.006000000     5.961000000     5.743000000
