215
-1460.22067
C    -1.591000000     5.054000000    -0.367000000
H    -2.292000000     4.822000000    -1.165000000
C    -0.211000000     4.668000000    -0.522000000
C     0.637000000     5.044000000     0.510000000
H     1.685000000     4.758000000     0.554000000
C     0.261000000     3.850000000    -1.725000000
O    -0.462000000     4.160000000    -2.877000000
H     0.185000000     2.827000000    -1.329000000
O     1.622000000     4.193000000    -1.929000000
C     2.474000000     3.165000000    -2.272000000
C     3.420000000     2.824000000    -1.242000000
H     3.375000000     3.343000000    -0.288000000
C     4.159000000     1.641000000    -1.457000000
O     4.826000000     1.223000000    -0.336000000
C     4.104000000     0.904000000    -2.649000000
C     4.918000000    -0.331000000    -2.939000000
H     5.094000000    -0.466000000    -4.009000000
C     4.201000000    -1.495000000    -2.347000000
C     3.405000000    -2.303000000    -3.152000000
H     3.306000000    -1.983000000    -4.186000000
H     5.960000000    -0.267000000    -2.618000000
C     3.238000000     1.379000000    -3.644000000
H     3.174000000     0.830000000    -4.580000000
C     2.436000000     2.466000000    -3.482000000
C     1.459000000     2.819000000    -4.570000000
H     1.862000000     2.567000000    -5.553000000
H     1.499000000     3.910000000    -4.592000000
C    -0.007000000     2.389000000    -4.348000000
C    -0.482000000     1.261000000    -4.996000000
H     0.108000000     0.753000000    -5.755000000
C    -0.930000000     3.066000000    -3.542000000
C    -2.190000000     2.519000000    -3.234000000
H    -2.744000000     2.988000000    -2.425000000
C    -2.509000000     1.269000000    -3.705000000
O    -3.768000000     0.721000000    -3.265000000
C    -3.739000000    -0.373000000    -2.350000000
C    -4.886000000    -0.310000000    -1.398000000
C    -5.498000000    -1.382000000    -0.720000000
H    -5.237000000    -2.421000000    -0.903000000
C    -5.309000000     0.967000000    -0.988000000
H    -4.853000000     1.849000000    -1.429000000
O    -3.645000000    -1.726000000    -2.953000000
H    -2.837000000    -0.197000000    -1.746000000
C    -1.665000000     0.599000000    -4.582000000
C    -1.942000000    -0.792000000    -5.152000000
H    -1.562000000    -0.947000000    -6.164000000
H    -3.017000000    -0.908000000    -5.308000000
C    -1.529000000    -1.858000000    -4.207000000
C    -0.303000000    -2.424000000    -4.341000000
H     0.357000000    -2.188000000    -5.172000000
C    -2.370000000    -2.235000000    -3.148000000
C    -1.921000000    -3.188000000    -2.247000000
H    -2.492000000    -3.458000000    -1.362000000
C    -0.672000000    -3.847000000    -2.391000000
O    -0.265000000    -4.671000000    -1.391000000
C     0.614000000    -4.214000000    -0.349000000
C     0.130000000    -4.531000000     1.108000000
C    -1.202000000    -4.324000000     1.465000000
H    -1.984000000    -4.161000000     0.727000000
C     1.029000000    -4.868000000     2.144000000
H     2.093000000    -4.977000000     1.955000000
O     1.937000000    -4.658000000    -0.752000000
H     0.470000000    -3.124000000    -0.398000000
C     0.173000000    -3.354000000    -3.370000000
C     1.539000000    -3.965000000    -3.465000000
H     1.833000000    -3.898000000    -4.515000000
H     1.508000000    -5.039000000    -3.273000000
C     2.661000000    -3.349000000    -2.645000000
C     2.804000000    -3.722000000    -1.350000000
C     3.729000000    -3.079000000    -0.552000000
H     4.035000000    -3.526000000     0.390000000
C     4.361000000    -1.943000000    -1.035000000
O     5.018000000    -1.151000000    -0.039000000
C     4.324000000     0.033000000     0.333000000
H     3.258000000     0.025000000     0.062000000
C     4.196000000     0.137000000     1.877000000
C     3.720000000     1.359000000     2.419000000
H     3.428000000     2.224000000     1.829000000
C     4.541000000    -0.913000000     2.754000000
H     4.862000000    -1.846000000     2.298000000
C     4.370000000    -0.758000000     4.117000000
O     4.592000000    -1.742000000     4.980000000
C     3.992000000     0.473000000     4.664000000
H     3.894000000     0.609000000     5.738000000
C     3.725000000     1.516000000     3.830000000
O     3.255000000     2.674000000     4.336000000
C     3.384000000     3.941000000     3.814000000
C     2.217000000     4.569000000     3.329000000
H     1.236000000     4.128000000     3.483000000
C     4.603000000     4.519000000     3.617000000
H     5.415000000     4.029000000     4.147000000
C     4.654000000     5.790000000     2.924000000
H     5.618000000     6.127000000     2.549000000
C     3.498000000     6.457000000     2.501000000
H     3.484000000     7.410000000     1.978000000
C     2.278000000     5.805000000     2.756000000
O     1.145000000     6.451000000     2.382000000
C     0.251000000     5.995000000     1.402000000
C    -1.072000000     6.389000000     1.492000000
H    -1.416000000     7.090000000     2.250000000
C    -2.043000000     5.796000000     0.663000000
O    -3.326000000     6.179000000     0.824000000
C    -4.409000000     5.580000000     0.296000000
C    -4.732000000     4.264000000     0.668000000
H    -4.023000000     3.847000000     1.378000000
C    -5.005000000     6.062000000    -0.778000000
H    -4.780000000     6.981000000    -1.314000000
C    -6.134000000     5.389000000    -1.365000000
H    -6.604000000     5.910000000    -2.195000000
C    -6.578000000     4.177000000    -0.869000000
H    -7.391000000     3.622000000    -1.330000000
C    -5.894000000     3.621000000     0.178000000
O    -6.157000000     2.377000000     0.741000000
C    -6.151000000     1.160000000     0.104000000
C    -6.738000000     0.084000000     0.764000000
H    -7.388000000     0.247000000     1.619000000
C    -6.418000000    -1.212000000     0.338000000
O    -6.814000000    -2.297000000     1.146000000
C    -6.048000000    -3.404000000     1.491000000
C    -4.809000000    -3.219000000     2.087000000
H    -4.435000000    -2.204000000     2.183000000
C    -6.450000000    -4.745000000     1.200000000
H    -7.452000000    -4.892000000     0.806000000
C    -5.569000000    -5.809000000     1.407000000
H    -5.732000000    -6.845000000     1.122000000
C    -4.360000000    -5.651000000     2.091000000
H    -3.614000000    -6.434000000     2.198000000
C    -4.051000000    -4.325000000     2.466000000
O    -2.951000000    -4.065000000     3.153000000
C    -1.687000000    -4.441000000     2.743000000
C    -0.763000000    -4.718000000     3.715000000
H    -0.978000000    -4.611000000     4.775000000
C     0.564000000    -4.977000000     3.427000000
O     1.446000000    -5.273000000     4.432000000
C     2.752000000    -4.816000000     4.544000000
C     3.750000000    -5.753000000     4.549000000
H     3.490000000    -6.807000000     4.600000000
C     5.063000000    -5.374000000     4.784000000
H     5.832000000    -6.137000000     4.873000000
C     5.416000000    -3.997000000     4.902000000
H     6.405000000    -3.725000000     5.262000000
C     4.387000000    -3.085000000     4.782000000
C     3.034000000    -3.458000000     4.765000000
H     2.256000000    -2.707000000     4.875000000
C     0.282000000    -0.321000000     1.971000000
H     0.532000000    -0.730000000     2.947000000
C     0.968000000    -0.779000000     0.860000000
H     1.661000000    -1.611000000     0.956000000
C     0.662000000    -0.322000000    -0.387000000
H     1.167000000    -0.676000000    -1.327000000
C    -0.394000000     0.568000000    -0.587000000
H    -0.648000000     0.801000000    -1.618000000
C    -1.013000000     1.110000000     0.558000000
H    -1.790000000     1.852000000     0.390000000
C    -0.724000000     0.634000000     1.818000000
C    -1.371000000     1.177000000     3.082000000
O    -2.330000000     1.911000000     2.852000000
O    -0.987000000     0.815000000     4.210000000
O    -2.709000000    -0.800000000     5.523000000
H    -2.309000000    -0.122000000     4.979000000
H    -3.650000000    -0.641000000     5.451000000
O    -4.362000000     0.147000000     9.419000000
H    -4.244000000     0.175000000    10.368000000
H    -3.542000000    -0.217000000     9.086000000
O    -4.730000000     2.363000000     7.371000000
H    -4.880000000     1.604000000     7.934000000
H    -5.101000000     2.110000000     6.525000000
O    -6.020000000    -3.481000000     5.428000000
H    -6.029000000    -3.373000000     6.379000000
H    -5.420000000    -2.804000000     5.116000000
O    -2.521000000    -3.274000000     6.874000000
H    -2.519000000    -2.525000000     6.277000000
H    -1.606000000    -3.555000000     6.907000000
O    -5.225000000     0.366000000     5.157000000
H    -5.013000000     0.357000000     4.223000000
H    -6.121000000     0.032000000     5.202000000
O     2.610000000     2.487000000     7.114000000
H     1.980000000     3.195000000     6.981000000
H     2.360000000     1.821000000     6.475000000
O    -1.407000000     4.376000000     3.953000000
H    -1.745000000     3.613000000     3.485000000
H    -1.219000000     4.052000000     4.834000000
O    -1.410000000     2.766000000     6.187000000
H    -1.440000000     2.037000000     5.568000000
H    -2.133000000     2.598000000     6.791000000
O    -1.663000000    -0.426000000     9.298000000
H    -1.917000000    -1.188000000     9.817000000
H    -0.800000000    -0.649000000     8.950000000
O    -4.604000000     3.634000000     4.018000000
H    -3.842000000     3.092000000     3.814000000
H    -4.306000000     4.532000000     3.872000000
O    -8.121000000     0.550000000     5.295000000
H    -7.803000000     1.334000000     4.846000000
H    -8.910000000     0.301000000     4.813000000
O    -3.708000000     6.154000000     3.765000000
H    -2.804000000     5.844000000     3.810000000
H    -3.652000000     7.087000000     3.975000000
O    -4.365000000     0.349000000     2.617000000
H    -3.699000000     1.031000000     2.705000000
H    -4.655000000     0.414000000     1.707000000
O     1.317000000    -1.237000000     9.011000000
H     1.147000000    -1.025000000     8.093000000
H     2.176000000    -0.855000000     9.191000000
O     0.500000000     4.445000000     6.709000000
H    -0.057000000     3.710000000     6.450000000
H    -0.100000000     5.187000000     6.780000000
O    -6.963000000     2.554000000     3.584000000
H    -6.760000000     2.408000000     2.660000000
H    -6.280000000     3.152000000     3.888000000
O     0.421000000     0.168000000     6.596000000
H     0.293000000     0.544000000     5.725000000
H    -0.303000000    -0.450000000     6.699000000
O    -1.069000000     7.289000000     4.653000000
H    -0.834000000     6.418000000     4.333000000
H    -1.734000000     7.127000000     5.322000000
