215
-1497.84285
C    -0.086000000     2.385000000    -4.535000000
H    -0.544000000     1.430000000    -4.781000000
C     1.120000000     2.543000000    -3.858000000
C     1.537000000     3.850000000    -3.516000000
H     2.499000000     4.170000000    -3.125000000
C     2.031000000     1.352000000    -3.479000000
O     1.966000000     0.367000000    -4.528000000
H     1.643000000     0.892000000    -2.559000000
O     3.357000000     1.884000000    -3.204000000
C     3.949000000     1.239000000    -2.139000000
C     4.095000000     1.905000000    -0.934000000
H     3.789000000     2.947000000    -0.974000000
C     4.518000000     1.337000000     0.278000000
O     4.331000000     2.072000000     1.440000000
C     4.875000000    -0.017000000     0.272000000
C     5.412000000    -0.741000000     1.493000000
H     6.217000000    -1.421000000     1.207000000
C     4.247000000    -1.375000000     2.302000000
C     3.733000000    -2.663000000     1.985000000
H     4.191000000    -3.187000000     1.150000000
H     5.970000000    -0.017000000     2.090000000
C     4.782000000    -0.770000000    -0.956000000
H     4.902000000    -1.850000000    -0.996000000
C     4.370000000    -0.142000000    -2.146000000
C     4.357000000    -0.974000000    -3.363000000
H     5.236000000    -1.620000000    -3.310000000
H     4.560000000    -0.267000000    -4.170000000
C     2.904000000    -1.582000000    -3.526000000
C     2.693000000    -2.880000000    -3.054000000
H     3.499000000    -3.355000000    -2.501000000
C     1.836000000    -0.900000000    -4.122000000
C     0.650000000    -1.614000000    -4.350000000
H    -0.181000000    -1.072000000    -4.796000000
C     0.452000000    -2.890000000    -3.867000000
O    -0.893000000    -3.323000000    -3.839000000
C    -1.662000000    -3.060000000    -2.599000000
C    -3.027000000    -2.569000000    -2.877000000
C    -4.079000000    -2.807000000    -1.912000000
H    -3.785000000    -3.403000000    -1.052000000
C    -3.384000000    -1.712000000    -3.951000000
H    -2.600000000    -1.541000000    -4.684000000
O    -1.709000000    -4.322000000    -1.838000000
H    -1.038000000    -2.408000000    -1.969000000
C     1.453000000    -3.549000000    -3.112000000
C     1.216000000    -4.894000000    -2.511000000
H     2.070000000    -5.574000000    -2.488000000
H     0.485000000    -5.437000000    -3.114000000
C     0.632000000    -4.802000000    -1.172000000
C     1.524000000    -4.863000000    -0.083000000
H     2.584000000    -4.978000000    -0.298000000
C    -0.761000000    -4.469000000    -0.839000000
C    -1.150000000    -4.150000000     0.508000000
H    -2.188000000    -3.946000000     0.755000000
C    -0.233000000    -4.335000000     1.535000000
O    -0.668000000    -4.036000000     2.802000000
C    -0.342000000    -2.649000000     3.181000000
C    -1.564000000    -1.996000000     3.831000000
C    -2.832000000    -1.990000000     3.189000000
H    -2.918000000    -2.498000000     2.232000000
C    -1.451000000    -1.248000000     4.982000000
H    -0.480000000    -1.122000000     5.454000000
O     0.738000000    -2.700000000     4.136000000
H    -0.099000000    -1.915000000     2.399000000
C     1.085000000    -4.651000000     1.250000000
C     2.166000000    -4.667000000     2.431000000
H     2.893000000    -5.403000000     2.082000000
H     1.692000000    -5.060000000     3.333000000
C     2.652000000    -3.263000000     2.692000000
C     1.994000000    -2.422000000     3.630000000
C     2.430000000    -1.156000000     3.912000000
H     1.728000000    -0.612000000     4.539000000
C     3.560000000    -0.582000000     3.280000000
O     3.760000000     0.806000000     3.382000000
C     3.263000000     1.615000000     2.334000000
H     2.519000000     1.000000000     1.807000000
C     2.508000000     2.810000000     2.874000000
C     2.177000000     3.864000000     1.996000000
H     2.581000000     3.876000000     0.987000000
C     1.961000000     2.798000000     4.103000000
H     2.125000000     1.908000000     4.706000000
C     1.040000000     3.827000000     4.485000000
O     0.333000000     3.914000000     5.640000000
C     0.900000000     4.947000000     3.678000000
H     0.256000000     5.746000000     4.038000000
C     1.506000000     4.983000000     2.437000000
O     1.291000000     6.085000000     1.601000000
C     1.944000000     6.235000000     0.396000000
C     1.150000000     6.033000000    -0.742000000
H     0.184000000     5.539000000    -0.677000000
C     3.271000000     6.718000000     0.325000000
H     3.853000000     6.798000000     1.239000000
C     3.775000000     6.978000000    -0.941000000
H     4.783000000     7.368000000    -1.057000000
C     2.948000000     6.797000000    -2.074000000
H     3.412000000     7.110000000    -3.006000000
C     1.634000000     6.369000000    -1.990000000
O     0.858000000     6.210000000    -3.092000000
C     0.642000000     4.939000000    -3.664000000
C    -0.545000000     4.728000000    -4.421000000
H    -1.250000000     5.527000000    -4.635000000
C    -0.906000000     3.497000000    -4.770000000
O    -2.109000000     3.434000000    -5.423000000
C    -2.671000000     2.322000000    -5.951000000
C    -3.401000000     1.364000000    -5.214000000
H    -3.585000000     1.385000000    -4.143000000
C    -2.463000000     2.151000000    -7.294000000
H    -1.807000000     2.789000000    -7.880000000
C    -3.020000000     1.028000000    -7.964000000
H    -2.878000000     0.879000000    -9.031000000
C    -3.805000000     0.049000000    -7.185000000
H    -4.296000000    -0.773000000    -7.701000000
C    -4.020000000     0.297000000    -5.843000000
O    -4.972000000    -0.542000000    -5.230000000
C    -4.640000000    -1.195000000    -4.128000000
C    -5.665000000    -1.512000000    -3.253000000
H    -6.689000000    -1.150000000    -3.220000000
C    -5.365000000    -2.298000000    -2.138000000
O    -6.412000000    -2.562000000    -1.248000000
C    -6.324000000    -2.838000000     0.110000000
C    -5.746000000    -1.910000000     0.985000000
H    -5.484000000    -0.898000000     0.690000000
C    -6.766000000    -4.108000000     0.558000000
H    -7.067000000    -4.790000000    -0.233000000
C    -6.690000000    -4.365000000     1.930000000
H    -7.079000000    -5.311000000     2.299000000
C    -6.220000000    -3.414000000     2.814000000
H    -6.110000000    -3.622000000     3.876000000
C    -5.722000000    -2.164000000     2.339000000
O    -5.232000000    -1.248000000     3.291000000
C    -3.925000000    -1.251000000     3.775000000
C    -3.703000000    -0.571000000     4.982000000
H    -4.535000000    -0.090000000     5.489000000
C    -2.514000000    -0.553000000     5.534000000
O    -2.408000000     0.112000000     6.725000000
C    -1.258000000     0.877000000     6.952000000
C    -0.595000000     0.696000000     8.153000000
H    -0.922000000    -0.122000000     8.790000000
C     0.504000000     1.551000000     8.505000000
H     0.873000000     1.468000000     9.524000000
C     0.808000000     2.596000000     7.655000000
H     1.519000000     3.382000000     7.898000000
C     0.068000000     2.827000000     6.496000000
C    -0.950000000     1.991000000     6.147000000
H    -1.606000000     2.190000000     5.303000000
C    -1.717000000     0.005000000    -0.120000000
H    -2.523000000    -0.719000000    -0.034000000
C    -0.384000000    -0.475000000    -0.216000000
H    -0.234000000    -1.540000000    -0.058000000
C     0.605000000     0.422000000    -0.478000000
H     1.603000000     0.072000000    -0.436000000
C     0.352000000     1.813000000    -0.528000000
H     1.156000000     2.534000000    -0.655000000
C    -0.962000000     2.262000000    -0.565000000
H    -1.241000000     3.303000000    -0.707000000
C    -2.036000000     1.334000000    -0.418000000
C    -3.453000000     1.711000000    -0.701000000
O    -3.839000000     2.916000000    -0.854000000
O    -4.333000000     0.874000000    -0.530000000
O    -2.868000000     2.766000000     3.018000000
H    -2.039000000     2.288000000     2.995000000
H    -3.501000000     2.166000000     2.624000000
O    -5.639000000     2.421000000    -2.811000000
H    -5.680000000     1.515000000    -2.504000000
H    -4.951000000     2.823000000    -2.282000000
O    -0.314000000     1.424000000     2.647000000
H     0.562000000     1.576000000     3.002000000
H    -0.174000000     1.305000000     1.707000000
O    -7.822000000     4.492000000    -4.621000000
H    -7.238000000     4.017000000    -5.212000000
H    -7.236000000     4.920000000    -3.998000000
O    -6.495000000     2.260000000    -6.068000000
H    -5.849000000     2.329000000    -5.365000000
H    -6.928000000     1.420000000    -5.915000000
O    -7.430000000     2.835000000     2.351000000
H    -7.915000000     3.035000000     1.550000000
H    -6.695000000     3.448000000     2.345000000
O    -5.098000000     6.942000000     1.899000000
H    -5.236000000     6.147000000     2.414000000
H    -4.753000000     6.628000000     1.063000000
O    -6.138000000     4.934000000     3.394000000
H    -5.490000000     4.471000000     3.924000000
H    -6.817000000     5.193000000     4.017000000
O    -4.868000000     1.389000000     2.244000000
H    -4.907000000     1.419000000     1.288000000
H    -5.012000000     0.468000000     2.461000000
O    -2.018000000     7.330000000     0.786000000
H    -1.065000000     7.253000000     0.765000000
H    -2.331000000     6.427000000     0.835000000
O    -7.151000000     0.920000000    -0.157000000
H    -7.160000000     1.877000000    -0.174000000
H    -6.226000000     0.688000000    -0.237000000
O    -4.344000000     3.713000000     5.138000000
H    -3.855000000     4.257000000     5.755000000
H    -3.695000000     3.444000000     4.489000000
O    -4.221000000     5.904000000    -1.335000000
H    -3.562000000     6.572000000    -1.527000000
H    -3.717000000     5.155000000    -1.019000000
O    -7.327000000     0.665000000     4.434000000
H    -6.786000000     1.224000000     3.876000000
H    -7.144000000    -0.224000000     4.130000000
O    -6.724000000     4.108000000    -0.109000000
H    -5.822000000     4.212000000    -0.413000000
H    -7.147000000     4.938000000    -0.328000000
O    -5.600000000     5.217000000    -3.536000000
H    -5.667000000     4.276000000    -3.374000000
H    -5.242000000     5.574000000    -2.723000000
O    -2.901000000     4.664000000     0.885000000
H    -2.954000000     4.284000000     1.762000000
H    -3.196000000     3.964000000     0.303000000
O    -8.231000000     1.089000000    -2.828000000
H    -8.374000000     0.891000000    -1.902000000
H    -7.967000000     2.009000000    -2.838000000
O    -8.866000000    -0.311000000     1.777000000
H    -8.385000000    -0.039000000     0.996000000
H    -8.748000000     0.410000000     2.395000000
