215
-1459.46647
C    -1.829000000     4.920000000    -0.437000000
H    -2.355000000     4.610000000    -1.336000000
C    -0.394000000     4.739000000    -0.365000000
C     0.287000000     5.099000000     0.786000000
H     1.285000000     4.764000000     1.055000000
C     0.265000000     3.907000000    -1.401000000
O    -0.330000000     4.127000000    -2.732000000
H     0.258000000     2.842000000    -1.124000000
O     1.675000000     4.229000000    -1.333000000
C     2.608000000     3.243000000    -1.493000000
C     3.266000000     2.774000000    -0.313000000
H     3.037000000     3.239000000     0.643000000
C     4.188000000     1.799000000    -0.284000000
O     4.675000000     1.370000000     0.913000000
C     4.391000000     1.157000000    -1.521000000
C     5.336000000    -0.045000000    -1.599000000
H     5.813000000    -0.121000000    -2.578000000
C     4.495000000    -1.259000000    -1.269000000
C     3.906000000    -2.032000000    -2.326000000
H     4.005000000    -1.710000000    -3.360000000
H     6.140000000     0.172000000    -0.893000000
C     3.742000000     1.606000000    -2.699000000
H     4.065000000     1.238000000    -3.670000000
C     2.839000000     2.696000000    -2.752000000
C     2.083000000     2.995000000    -4.036000000
H     2.570000000     2.641000000    -4.947000000
H     2.075000000     4.076000000    -4.191000000
C     0.649000000     2.530000000    -4.193000000
C     0.521000000     1.289000000    -4.797000000
H     1.303000000     0.844000000    -5.407000000
C    -0.458000000     3.072000000    -3.557000000
C    -1.716000000     2.510000000    -3.707000000
H    -2.638000000     2.941000000    -3.324000000
C    -1.887000000     1.286000000    -4.443000000
O    -3.064000000     0.626000000    -4.290000000
C    -3.044000000    -0.412000000    -3.315000000
C    -4.290000000    -0.339000000    -2.460000000
C    -4.806000000    -1.489000000    -1.732000000
H    -4.205000000    -2.394000000    -1.701000000
C    -4.958000000     0.865000000    -2.236000000
H    -4.538000000     1.776000000    -2.654000000
O    -2.733000000    -1.693000000    -3.893000000
H    -2.201000000    -0.195000000    -2.643000000
C    -0.736000000     0.663000000    -4.876000000
C    -0.707000000    -0.757000000    -5.500000000
H     0.115000000    -0.777000000    -6.218000000
H    -1.689000000    -0.872000000    -5.962000000
C    -0.463000000    -1.878000000    -4.407000000
C     0.775000000    -2.387000000    -4.134000000
H     1.555000000    -2.148000000    -4.854000000
C    -1.573000000    -2.285000000    -3.691000000
C    -1.358000000    -3.198000000    -2.673000000
H    -2.176000000    -3.457000000    -2.005000000
C    -0.144000000    -3.804000000    -2.435000000
O    -0.022000000    -4.624000000    -1.320000000
C     0.778000000    -4.027000000    -0.261000000
C     0.101000000    -4.500000000     1.011000000
C    -1.331000000    -4.581000000     1.057000000
H    -1.913000000    -4.311000000     0.180000000
C     0.793000000    -4.788000000     2.161000000
H     1.868000000    -4.693000000     2.291000000
O     2.136000000    -4.450000000    -0.337000000
H     0.737000000    -2.944000000    -0.449000000
C     0.951000000    -3.463000000    -3.216000000
C     2.364000000    -4.005000000    -3.029000000
H     2.897000000    -4.130000000    -3.974000000
H     2.394000000    -5.060000000    -2.747000000
C     3.125000000    -3.147000000    -1.978000000
C     3.020000000    -3.466000000    -0.629000000
C     3.708000000    -2.866000000     0.361000000
H     3.595000000    -3.088000000     1.419000000
C     4.397000000    -1.733000000     0.060000000
O     4.832000000    -0.984000000     1.213000000
C     4.088000000     0.228000000     1.555000000
H     3.079000000     0.196000000     1.118000000
C     3.799000000     0.383000000     3.046000000
C     3.487000000     1.665000000     3.453000000
H     3.358000000     2.506000000     2.776000000
C     3.698000000    -0.690000000     3.871000000
H     3.906000000    -1.693000000     3.508000000
C     3.345000000    -0.438000000     5.184000000
O     3.127000000    -1.549000000     6.004000000
C     3.063000000     0.859000000     5.625000000
H     2.768000000     0.986000000     6.663000000
C     3.143000000     1.941000000     4.792000000
O     2.590000000     3.141000000     5.158000000
C     2.610000000     4.338000000     4.519000000
C     1.407000000     4.938000000     4.070000000
H     0.487000000     4.374000000     4.200000000
C     3.810000000     4.933000000     4.140000000
H     4.662000000     4.351000000     4.482000000
C     3.857000000     6.080000000     3.373000000
H     4.833000000     6.514000000     3.168000000
C     2.611000000     6.686000000     3.047000000
H     2.675000000     7.618000000     2.491000000
C     1.379000000     6.123000000     3.388000000
O     0.189000000     6.418000000     2.754000000
C    -0.450000000     5.835000000     1.703000000
C    -1.850000000     5.956000000     1.672000000
H    -2.279000000     6.587000000     2.446000000
C    -2.560000000     5.444000000     0.603000000
O    -3.966000000     5.424000000     0.618000000
C    -4.734000000     4.880000000    -0.411000000
C    -5.473000000     3.738000000    -0.241000000
H    -5.479000000     3.266000000     0.738000000
C    -4.969000000     5.758000000    -1.544000000
H    -4.522000000     6.745000000    -1.453000000
C    -5.727000000     5.276000000    -2.563000000
H    -5.942000000     5.933000000    -3.401000000
C    -6.305000000     4.036000000    -2.485000000
H    -6.907000000     3.588000000    -3.271000000
C    -6.215000000     3.303000000    -1.285000000
O    -6.796000000     2.067000000    -1.139000000
C    -6.137000000     0.848000000    -1.430000000
C    -6.650000000    -0.291000000    -0.832000000
H    -7.543000000    -0.345000000    -0.215000000
C    -5.939000000    -1.463000000    -1.010000000
O    -6.498000000    -2.699000000    -0.549000000
C    -5.714000000    -3.790000000    -0.233000000
C    -4.753000000    -3.680000000     0.748000000
H    -4.558000000    -2.715000000     1.209000000
C    -5.934000000    -4.998000000    -0.918000000
H    -6.549000000    -4.945000000    -1.812000000
C    -5.092000000    -6.036000000    -0.686000000
H    -5.132000000    -6.988000000    -1.208000000
C    -4.165000000    -5.978000000     0.360000000
H    -3.589000000    -6.869000000     0.597000000
C    -4.115000000    -4.844000000     1.181000000
O    -3.352000000    -4.897000000     2.325000000
C    -2.000000000    -4.856000000     2.271000000
C    -1.198000000    -5.326000000     3.329000000
H    -1.700000000    -5.714000000     4.211000000
C     0.151000000    -5.198000000     3.313000000
O     0.887000000    -5.592000000     4.494000000
C     2.022000000    -4.928000000     4.955000000
C     3.180000000    -5.656000000     5.283000000
H     3.138000000    -6.739000000     5.206000000
C     4.328000000    -4.994000000     5.730000000
H     5.153000000    -5.624000000     6.053000000
C     4.330000000    -3.613000000     5.840000000
H     5.165000000    -3.055000000     6.256000000
C     3.193000000    -2.917000000     5.518000000
C     2.030000000    -3.537000000     5.113000000
H     1.152000000    -2.900000000     5.050000000
C    -0.654000000    -0.688000000     1.849000000
H    -0.676000000    -1.165000000     2.826000000
C     0.511000000    -0.756000000     1.158000000
H     1.434000000    -1.155000000     1.572000000
C     0.588000000    -0.290000000    -0.159000000
H     1.518000000    -0.302000000    -0.787000000
C    -0.451000000     0.511000000    -0.647000000
H    -0.412000000     0.971000000    -1.631000000
C    -1.625000000     0.653000000     0.139000000
H    -2.409000000     1.347000000    -0.155000000
C    -1.734000000     0.082000000     1.396000000
C    -3.002000000     0.186000000     2.223000000
O    -3.882000000     1.013000000     1.951000000
O    -3.070000000    -0.525000000     3.238000000
O    -4.349000000     3.019000000     3.552000000
H    -4.647000000     2.396000000     4.214000000
H    -4.302000000     2.508000000     2.744000000
O    -6.621000000     4.668000000     2.788000000
H    -7.000000000     5.215000000     3.476000000
H    -5.683000000     4.659000000     2.980000000
O    -1.055000000    -1.486000000     5.479000000
H    -1.727000000    -1.413000000     4.802000000
H    -1.336000000    -2.226000000     6.017000000
O    -4.493000000     0.452000000     5.107000000
H    -4.690000000    -0.249000000     5.729000000
H    -3.910000000     0.045000000     4.466000000
O    -4.740000000    -4.598000000     5.399000000
H    -4.690000000    -4.000000000     4.654000000
H    -5.535000000    -4.335000000     5.864000000
O    -2.252000000    -3.308000000     7.279000000
H    -1.637000000    -4.006000000     7.054000000
H    -3.028000000    -3.767000000     7.601000000
O    -7.018000000    -1.513000000     6.522000000
H    -6.606000000    -1.050000000     7.252000000
H    -7.279000000    -0.820000000     5.915000000
O    -7.348000000    -3.891000000     3.788000000
H    -6.677000000    -3.239000000     3.991000000
H    -8.120000000    -3.599000000     4.271000000
O    -3.126000000     2.827000000     6.649000000
H    -3.523000000     2.226000000     6.019000000
H    -2.698000000     3.491000000     6.109000000
O    -1.441000000     2.943000000     3.071000000
H    -0.950000000     2.854000000     2.254000000
H    -2.359000000     2.879000000     2.807000000
O    -0.301000000     1.348000000     5.043000000
H    -0.736000000     0.563000000     4.709000000
H    -0.427000000     2.002000000     4.356000000
O    -3.780000000    -1.006000000     7.546000000
H    -3.187000000    -1.670000000     7.193000000
H    -3.273000000    -0.572000000     8.232000000
O    -6.510000000     0.693000000     2.641000000
H    -6.913000000     1.304000000     2.023000000
H    -5.586000000     0.672000000     2.388000000
O    -1.973000000     4.927000000     4.740000000
H    -2.904000000     5.023000000     4.539000000
H    -1.656000000     4.285000000     4.105000000
O    -5.467000000    -2.015000000     3.779000000
H    -5.910000000    -1.227000000     3.465000000
H    -4.540000000    -1.855000000     3.604000000
O     0.486000000     2.111000000     7.482000000
H     0.265000000     1.885000000     6.578000000
H    -0.313000000     2.504000000     7.833000000
O    -7.709000000     0.782000000     5.157000000
H    -6.761000000     0.808000000     5.031000000
H    -8.063000000     0.625000000     4.282000000
O    -8.384000000     2.981000000     1.680000000
H    -7.649000000     3.499000000     2.008000000
H    -8.893000000     3.596000000     1.152000000
O    -0.325000000    -0.848000000     8.030000000
H     0.154000000    -0.019000000     8.048000000
H    -0.505000000    -1.000000000     7.103000000
