215
-1459.00018
C    -2.189000000     3.494000000    -0.819000000
H    -2.667000000     2.792000000    -1.497000000
C    -0.867000000     3.808000000    -0.974000000
C    -0.206000000     4.706000000    -0.193000000
H     0.855000000     4.881000000    -0.355000000
C    -0.093000000     3.180000000    -2.106000000
O    -0.962000000     3.132000000    -3.271000000
H     0.149000000     2.155000000    -1.788000000
O     1.177000000     3.774000000    -2.470000000
C     2.228000000     2.892000000    -2.568000000
C     3.236000000     2.958000000    -1.600000000
H     3.163000000     3.766000000    -0.877000000
C     4.178000000     1.913000000    -1.460000000
O     4.812000000     1.864000000    -0.280000000
C     4.282000000     0.953000000    -2.432000000
C     5.265000000    -0.247000000    -2.216000000
H     5.685000000    -0.679000000    -3.126000000
C     4.509000000    -1.342000000    -1.463000000
C     3.801000000    -2.321000000    -2.190000000
H     3.895000000    -2.261000000    -3.271000000
H     6.094000000     0.039000000    -1.564000000
C     3.330000000     0.953000000    -3.481000000
H     3.469000000     0.240000000    -4.290000000
C     2.298000000     1.919000000    -3.532000000
C     1.293000000     1.945000000    -4.698000000
H     1.720000000     1.512000000    -5.605000000
H     1.171000000     2.987000000    -5.000000000
C     0.058000000     1.204000000    -4.428000000
C     0.011000000    -0.112000000    -4.848000000
H     0.925000000    -0.585000000    -5.198000000
C    -1.039000000     1.897000000    -3.927000000
C    -2.241000000     1.135000000    -3.766000000
H    -3.099000000     1.538000000    -3.233000000
C    -2.317000000    -0.111000000    -4.257000000
O    -3.417000000    -0.784000000    -3.895000000
C    -3.419000000    -1.559000000    -2.616000000
C    -4.595000000    -1.347000000    -1.715000000
C    -4.840000000    -2.163000000    -0.619000000
H    -4.224000000    -3.056000000    -0.540000000
C    -5.476000000    -0.363000000    -2.046000000
H    -5.322000000     0.318000000    -2.880000000
O    -3.104000000    -2.947000000    -2.898000000
H    -2.504000000    -1.166000000    -2.150000000
C    -1.187000000    -0.769000000    -4.737000000
C    -1.219000000    -2.255000000    -5.083000000
H    -0.441000000    -2.479000000    -5.816000000
H    -2.201000000    -2.460000000    -5.515000000
C    -0.867000000    -3.081000000    -3.831000000
C     0.449000000    -3.453000000    -3.742000000
H     1.166000000    -3.189000000    -4.515000000
C    -1.790000000    -3.338000000    -2.799000000
C    -1.348000000    -3.959000000    -1.642000000
H    -2.078000000    -4.150000000    -0.859000000
C     0.041000000    -4.322000000    -1.493000000
O     0.463000000    -5.003000000    -0.363000000
C     1.156000000    -4.099000000     0.592000000
C     0.627000000    -4.188000000     1.991000000
C    -0.723000000    -3.910000000     2.208000000
H    -1.249000000    -3.754000000     1.270000000
C     1.489000000    -4.387000000     3.053000000
H     2.564000000    -4.509000000     2.940000000
O     2.531000000    -4.413000000     0.511000000
H     1.009000000    -3.097000000     0.160000000
C     0.925000000    -4.024000000    -2.569000000
C     2.406000000    -4.299000000    -2.448000000
H     2.902000000    -4.393000000    -3.416000000
H     2.551000000    -5.321000000    -2.091000000
C     3.167000000    -3.352000000    -1.576000000
C     3.204000000    -3.421000000    -0.174000000
C     3.866000000    -2.434000000     0.605000000
H     3.852000000    -2.459000000     1.692000000
C     4.429000000    -1.339000000    -0.072000000
O     4.884000000    -0.273000000     0.699000000
C     4.249000000     0.938000000     0.627000000
H     3.230000000     0.654000000     0.327000000
C     4.196000000     1.498000000     2.085000000
C     4.282000000     2.898000000     2.314000000
H     4.692000000     3.566000000     1.561000000
C     3.817000000     0.755000000     3.212000000
H     3.889000000    -0.325000000     3.111000000
C     3.596000000     1.323000000     4.479000000
O     3.327000000     0.495000000     5.532000000
C     3.473000000     2.682000000     4.618000000
H     3.211000000     3.125000000     5.576000000
C     3.868000000     3.455000000     3.553000000
O     3.862000000     4.812000000     3.589000000
C     3.197000000     5.552000000     2.590000000
C     1.793000000     5.481000000     2.530000000
H     1.281000000     4.799000000     3.203000000
C     3.878000000     6.530000000     1.896000000
H     4.944000000     6.679000000     2.047000000
C     3.161000000     7.403000000     1.016000000
H     3.693000000     8.186000000     0.482000000
C     1.761000000     7.362000000     1.020000000
H     1.194000000     7.984000000     0.332000000
C     1.087000000     6.418000000     1.780000000
O    -0.295000000     6.321000000     1.690000000
C    -0.850000000     5.307000000     0.865000000
C    -2.283000000     5.207000000     0.857000000
H    -2.806000000     5.869000000     1.542000000
C    -2.969000000     4.257000000     0.074000000
O    -4.351000000     4.102000000     0.112000000
C    -5.163000000     3.736000000    -0.951000000
C    -6.168000000     2.786000000    -0.760000000
H    -6.259000000     2.219000000     0.163000000
C    -4.944000000     4.308000000    -2.194000000
H    -4.107000000     4.995000000    -2.295000000
C    -5.663000000     3.926000000    -3.332000000
H    -5.468000000     4.372000000    -4.304000000
C    -6.636000000     2.878000000    -3.132000000
H    -7.101000000     2.396000000    -3.988000000
C    -6.822000000     2.319000000    -1.861000000
O    -7.381000000     1.032000000    -1.793000000
C    -6.634000000    -0.084000000    -1.341000000
C    -6.863000000    -0.903000000    -0.202000000
H    -7.717000000    -0.670000000     0.430000000
C    -5.958000000    -1.904000000     0.164000000
O    -6.344000000    -2.643000000     1.238000000
C    -5.500000000    -3.519000000     1.899000000
C    -4.434000000    -2.961000000     2.492000000
H    -4.153000000    -1.910000000     2.500000000
C    -5.878000000    -4.871000000     1.977000000
H    -6.765000000    -5.225000000     1.459000000
C    -4.974000000    -5.748000000     2.563000000
H    -5.217000000    -6.804000000     2.651000000
C    -3.874000000    -5.175000000     3.319000000
H    -3.235000000    -5.797000000     3.940000000
C    -3.589000000    -3.830000000     3.204000000
O    -2.494000000    -3.216000000     3.712000000
C    -1.238000000    -3.741000000     3.502000000
C    -0.362000000    -3.818000000     4.553000000
H    -0.690000000    -3.472000000     5.530000000
C     0.991000000    -4.135000000     4.336000000
O     1.836000000    -4.034000000     5.448000000
C     2.869000000    -3.136000000     5.480000000
C     4.115000000    -3.563000000     5.891000000
H     4.415000000    -4.584000000     6.113000000
C     5.132000000    -2.610000000     6.053000000
H     6.129000000    -2.953000000     6.315000000
C     4.902000000    -1.265000000     5.864000000
H     5.715000000    -0.545000000     5.828000000
C     3.622000000    -0.848000000     5.593000000
C     2.586000000    -1.751000000     5.332000000
H     1.580000000    -1.421000000     5.084000000
C    -0.280000000    -0.426000000     2.573000000
H     0.014000000    -0.941000000     3.484000000
C     0.503000000    -0.537000000     1.475000000
H     1.493000000    -0.985000000     1.449000000
C     0.012000000    -0.098000000     0.293000000
H     0.555000000    -0.120000000    -0.645000000
C    -1.263000000     0.456000000     0.240000000
H    -1.554000000     0.675000000    -0.784000000
C    -2.096000000     0.595000000     1.360000000
H    -3.106000000     0.995000000     1.344000000
C    -1.548000000     0.150000000     2.581000000
C    -2.309000000     0.299000000     3.845000000
O    -3.502000000     0.656000000     3.883000000
O    -1.822000000     0.088000000     4.927000000
O    -3.435000000     3.546000000     4.324000000
H    -3.492000000     3.636000000     5.275000000
H    -3.448000000     2.601000000     4.172000000
O    -5.976000000     3.775000000     2.966000000
H    -5.918000000     3.983000000     2.033000000
H    -5.065000000     3.718000000     3.255000000
O    -2.396000000     1.936000000     6.773000000
H    -2.213000000     1.283000000     6.096000000
H    -1.778000000     2.645000000     6.594000000
O    -3.442000000     5.382000000     6.602000000
H    -4.043000000     5.737000000     5.948000000
H    -2.677000000     5.104000000     6.099000000
O    -4.107000000     3.298000000     8.715000000
H    -3.421000000     3.184000000     8.058000000
H    -3.976000000     4.187000000     9.046000000
O    -1.912000000    -1.763000000     6.837000000
H    -2.151000000    -1.160000000     6.133000000
H    -1.069000000    -1.439000000     7.154000000
O    -7.880000000    -1.167000000     6.275000000
H    -8.431000000    -1.432000000     5.538000000
H    -7.031000000    -0.971000000     5.880000000
O     0.459000000     1.851000000     8.356000000
H     0.178000000     2.280000000     9.164000000
H     0.914000000     2.536000000     7.866000000
O    -2.918000000     0.273000000     9.037000000
H    -2.691000000     1.017000000     8.479000000
H    -2.531000000    -0.483000000     8.597000000
O    -5.819000000     0.873000000     2.570000000
H    -5.118000000     0.584000000     3.153000000
H    -5.594000000     1.778000000     2.353000000
O     0.502000000     2.494000000     2.127000000
H     0.568000000     3.195000000     1.479000000
H     0.386000000     1.698000000     1.607000000
O    -5.882000000     1.328000000     7.740000000
H    -5.458000000     0.714000000     8.340000000
H    -5.521000000     2.182000000     7.977000000
O    -1.145000000    -3.956000000     8.380000000
H    -1.850000000    -3.935000000     9.027000000
H    -1.371000000    -3.265000000     7.758000000
O    -0.147000000     2.507000000     4.878000000
H    -0.129000000     1.610000000     5.213000000
H     0.028000000     2.417000000     3.942000000
O    -1.004000000     5.283000000     4.772000000
H    -0.600000000     4.419000000     4.693000000
H    -1.711000000     5.277000000     4.127000000
O    -5.156000000    -0.594000000     5.680000000
H    -5.604000000     0.201000000     5.969000000
H    -4.395000000    -0.277000000     5.195000000
O    -8.453000000     1.187000000     3.701000000
H    -8.379000000     2.095000000     3.408000000
H    -7.770000000     0.722000000     3.217000000
O    -4.417000000    -3.148000000     6.659000000
H    -3.464000000    -3.234000000     6.636000000
H    -4.583000000    -2.251000000     6.370000000
O     0.158000000    -0.932000000     8.408000000
H     0.427000000    -0.042000000     8.182000000
H     0.515000000    -1.075000000     9.284000000
