215
-1452.30963
C    -2.436000000     3.712000000    -0.869000000
H    -2.691000000     2.808000000    -1.417000000
C    -1.300000000     4.403000000    -1.115000000
C    -0.890000000     5.397000000    -0.180000000
H     0.031000000     5.963000000    -0.295000000
C    -0.342000000     3.731000000    -2.074000000
O    -1.065000000     3.598000000    -3.270000000
H    -0.187000000     2.758000000    -1.586000000
O     0.918000000     4.406000000    -2.378000000
C     2.033000000     3.622000000    -2.292000000
C     2.854000000     3.610000000    -1.128000000
H     2.617000000     4.315000000    -0.335000000
C     3.876000000     2.711000000    -0.994000000
O     4.516000000     2.558000000     0.289000000
C     4.229000000     1.930000000    -2.127000000
C     5.280000000     0.893000000    -1.982000000
H     5.898000000     0.825000000    -2.880000000
C     4.733000000    -0.438000000    -1.456000000
C     4.373000000    -1.501000000    -2.264000000
H     4.493000000    -1.356000000    -3.334000000
H     6.061000000     1.073000000    -1.241000000
C     3.499000000     1.962000000    -3.247000000
H     3.772000000     1.250000000    -4.022000000
C     2.355000000     2.802000000    -3.325000000
C     1.447000000     2.746000000    -4.588000000
H     1.959000000     2.240000000    -5.408000000
H     1.253000000     3.732000000    -5.017000000
C     0.199000000     1.902000000    -4.449000000
C     0.314000000     0.614000000    -4.933000000
H     1.219000000     0.251000000    -5.413000000
C    -0.974000000     2.347000000    -3.884000000
C    -2.059000000     1.460000000    -3.727000000
H    -2.999000000     1.714000000    -3.244000000
C    -1.929000000     0.173000000    -4.196000000
O    -2.896000000    -0.775000000    -3.862000000
C    -2.746000000    -1.696000000    -2.747000000
C    -4.096000000    -1.808000000    -2.027000000
C    -4.327000000    -2.965000000    -1.310000000
H    -3.677000000    -3.836000000    -1.339000000
C    -5.042000000    -0.823000000    -2.194000000
H    -4.895000000     0.032000000    -2.849000000
O    -2.297000000    -2.997000000    -3.238000000
H    -1.974000000    -1.284000000    -2.080000000
C    -0.720000000    -0.309000000    -4.725000000
C    -0.508000000    -1.744000000    -5.247000000
H     0.150000000    -1.846000000    -6.113000000
H    -1.513000000    -2.072000000    -5.519000000
C     0.002000000    -2.643000000    -4.127000000
C     1.374000000    -2.822000000    -3.988000000
H     2.056000000    -2.242000000    -4.604000000
C    -0.896000000    -3.318000000    -3.266000000
C    -0.361000000    -4.207000000    -2.329000000
H    -1.118000000    -4.607000000    -1.660000000
C     0.983000000    -4.254000000    -2.087000000
O     1.402000000    -4.946000000    -0.953000000
C     1.728000000    -4.005000000     0.143000000
C     1.015000000    -4.438000000     1.419000000
C    -0.376000000    -4.272000000     1.556000000
H    -0.956000000    -3.895000000     0.718000000
C     1.820000000    -4.634000000     2.574000000
H     2.907000000    -4.630000000     2.569000000
O     3.170000000    -3.957000000     0.239000000
H     1.392000000    -2.984000000    -0.091000000
C     1.881000000    -3.600000000    -2.926000000
C     3.396000000    -3.757000000    -2.641000000
H     3.954000000    -3.641000000    -3.572000000
H     3.537000000    -4.764000000    -2.244000000
C     3.963000000    -2.759000000    -1.728000000
C     3.732000000    -2.800000000    -0.382000000
C     4.079000000    -1.727000000     0.471000000
H     3.965000000    -1.901000000     1.538000000
C     4.574000000    -0.591000000    -0.018000000
O     4.862000000     0.312000000     0.891000000
C     3.923000000     1.460000000     1.057000000
H     2.936000000     1.289000000     0.603000000
C     3.567000000     1.837000000     2.528000000
C     3.097000000     3.104000000     2.919000000
H     2.935000000     3.847000000     2.143000000
C     3.390000000     0.822000000     3.477000000
H     3.537000000    -0.229000000     3.242000000
C     2.994000000     1.039000000     4.825000000
O     2.908000000     0.017000000     5.775000000
C     2.691000000     2.356000000     5.244000000
H     2.522000000     2.575000000     6.296000000
C     2.693000000     3.328000000     4.213000000
O     2.248000000     4.604000000     4.522000000
C     1.745000000     5.621000000     3.700000000
C     0.557000000     5.517000000     3.005000000
H     0.060000000     4.554000000     2.923000000
C     2.441000000     6.842000000     3.815000000
H     3.279000000     6.821000000     4.507000000
C     1.983000000     7.989000000     3.222000000
H     2.539000000     8.916000000     3.341000000
C     0.770000000     7.881000000     2.540000000
H     0.355000000     8.703000000     1.963000000
C    -0.012000000     6.678000000     2.477000000
O    -1.260000000     6.686000000     1.805000000
C    -1.614000000     5.680000000     0.945000000
C    -2.849000000     5.097000000     1.045000000
H    -3.548000000     5.335000000     1.843000000
C    -3.285000000     4.148000000     0.116000000
O    -4.526000000     3.558000000     0.354000000
C    -5.481000000     3.102000000    -0.594000000
C    -5.935000000     1.789000000    -0.533000000
H    -5.533000000     1.094000000     0.199000000
C    -5.898000000     3.969000000    -1.628000000
H    -5.563000000     5.003000000    -1.608000000
C    -6.855000000     3.508000000    -2.565000000
H    -7.150000000     4.168000000    -3.376000000
C    -7.248000000     2.161000000    -2.584000000
H    -8.003000000     1.739000000    -3.242000000
C    -6.797000000     1.315000000    -1.525000000
O    -7.186000000     0.013000000    -1.495000000
C    -6.288000000    -0.957000000    -1.507000000
C    -6.520000000    -2.097000000    -0.748000000
H    -7.480000000    -2.230000000    -0.255000000
C    -5.542000000    -3.061000000    -0.617000000
O    -5.969000000    -4.250000000     0.017000000
C    -5.009000000    -4.871000000     0.760000000
C    -4.110000000    -4.155000000     1.539000000
H    -4.194000000    -3.071000000     1.524000000
C    -5.038000000    -6.204000000     0.890000000
H    -5.826000000    -6.772000000     0.402000000
C    -4.116000000    -6.911000000     1.705000000
H    -4.157000000    -7.994000000     1.792000000
C    -3.231000000    -6.166000000     2.453000000
H    -2.459000000    -6.675000000     3.025000000
C    -3.268000000    -4.836000000     2.342000000
O    -2.276000000    -4.194000000     3.038000000
C    -0.926000000    -4.397000000     2.811000000
C    -0.122000000    -4.431000000     3.947000000
H    -0.606000000    -4.415000000     4.920000000
C     1.255000000    -4.571000000     3.832000000
O     2.129000000    -4.677000000     4.862000000
C     2.939000000    -3.616000000     5.224000000
C     4.319000000    -3.882000000     5.287000000
H     4.698000000    -4.899000000     5.211000000
C     5.198000000    -2.803000000     5.339000000
H     6.279000000    -2.925000000     5.322000000
C     4.700000000    -1.486000000     5.592000000
H     5.401000000    -0.677000000     5.781000000
C     3.347000000    -1.289000000     5.542000000
C     2.450000000    -2.316000000     5.331000000
H     1.376000000    -2.152000000     5.299000000
C    -1.953000000    -0.612000000     1.455000000
H    -2.618000000    -1.467000000     1.550000000
C    -0.788000000    -0.658000000     0.712000000
H    -0.594000000    -1.655000000     0.325000000
C    -0.070000000     0.487000000     0.468000000
H     0.803000000     0.419000000    -0.158000000
C    -0.441000000     1.672000000     1.006000000
H     0.157000000     2.561000000     0.817000000
C    -1.601000000     1.793000000     1.779000000
H    -1.890000000     2.737000000     2.233000000
C    -2.405000000     0.650000000     2.011000000
C    -3.612000000     0.868000000     2.858000000
O    -3.898000000     1.950000000     3.363000000
O    -4.254000000    -0.142000000     3.107000000
O    -2.539000000     2.934000000     5.422000000
H    -3.068000000     3.632000000     5.809000000
H    -2.969000000     2.742000000     4.589000000
O    -8.854000000     1.592000000     4.682000000
H    -7.977000000     1.946000000     4.535000000
H    -8.958000000     1.597000000     5.634000000
O    -5.259000000     0.491000000     6.216000000
H    -5.363000000     1.292000000     5.702000000
H    -4.716000000    -0.076000000     5.669000000
O    -1.317000000     1.306000000     7.102000000
H    -1.724000000     1.823000000     6.406000000
H    -1.962000000     1.304000000     7.808000000
O    -3.093000000     6.936000000     3.975000000
H    -2.401000000     6.369000000     3.635000000
H    -2.671000000     7.788000000     4.085000000
O    -4.016000000    -0.783000000     8.520000000
H    -4.436000000    -0.143000000     7.945000000
H    -3.333000000    -0.286000000     8.972000000
O    -3.283000000    -2.254000000     4.725000000
H    -3.437000000    -1.589000000     4.054000000
H    -3.173000000    -3.068000000     4.235000000
O    -4.007000000     4.971000000     6.376000000
H    -4.223000000     4.998000000     7.308000000
H    -3.825000000     5.882000000     6.146000000
O    -7.216000000     0.870000000     8.020000000
H    -6.616000000     0.832000000     7.274000000
H    -7.116000000     0.021000000     8.450000000
O    -8.069000000     3.544000000     1.409000000
H    -7.444000000     2.987000000     1.874000000
H    -7.524000000     4.152000000     0.911000000
O    -8.879000000    -0.315000000     2.708000000
H    -9.364000000    -0.103000000     1.910000000
H    -8.962000000     0.466000000     3.254000000
O    -6.168000000     2.798000000     4.591000000
H    -5.323000000     2.562000000     4.210000000
H    -6.161000000     3.755000000     4.616000000
O    -1.163000000    -1.414000000     6.342000000
H    -1.771000000    -1.473000000     5.605000000
H    -1.027000000    -0.475000000     6.465000000
O    -3.279000000    -3.737000000     7.255000000
H    -3.249000000    -4.092000000     6.367000000
H    -3.148000000    -2.795000000     7.141000000
O    -0.835000000     4.803000000     5.983000000
H    -1.383000000     4.056000000     5.740000000
H    -0.322000000     4.491000000     6.728000000
O    -6.385000000     5.573000000     4.764000000
H    -5.437000000     5.578000000     4.902000000
H    -6.544000000     6.306000000     4.170000000
O    -6.265000000    -1.892000000     3.016000000
H    -6.930000000    -1.250000000     3.264000000
H    -5.492000000    -1.367000000     2.805000000
O    -8.318000000    -3.448000000     1.879000000
H    -8.231000000    -4.325000000     2.251000000
H    -7.619000000    -2.941000000     2.292000000
O    -5.855000000    -4.525000000     4.790000000
H    -6.474000000    -5.029000000     4.262000000
H    -5.955000000    -3.625000000     4.482000000
