215
-1445.85804
C    -2.627000000     4.503000000    -0.427000000
H    -3.339000000     3.750000000    -0.756000000
C    -1.332000000     4.465000000    -0.892000000
C    -0.360000000     5.259000000    -0.238000000
H     0.654000000     5.228000000    -0.627000000
C    -1.090000000     3.440000000    -1.989000000
O    -2.236000000     3.324000000    -2.795000000
H    -0.729000000     2.493000000    -1.562000000
O    -0.033000000     3.923000000    -2.766000000
C     0.960000000     3.047000000    -3.186000000
C     2.177000000     3.029000000    -2.479000000
H     2.447000000     3.705000000    -1.672000000
C     3.157000000     2.087000000    -2.731000000
O     4.209000000     1.986000000    -1.829000000
C     2.914000000     1.159000000    -3.810000000
C     3.726000000     0.040000000    -4.120000000
H     3.454000000    -0.386000000    -5.089000000
C     3.504000000    -1.079000000    -3.082000000
C     2.670000000    -2.079000000    -3.500000000
H     2.280000000    -1.910000000    -4.500000000
H     4.772000000     0.351000000    -4.152000000
C     1.664000000     1.207000000    -4.523000000
H     1.383000000     0.558000000    -5.349000000
C     0.698000000     2.203000000    -4.227000000
C    -0.648000000     2.223000000    -4.987000000
H    -0.510000000     1.900000000    -6.021000000
H    -0.988000000     3.244000000    -5.172000000
C    -1.727000000     1.400000000    -4.221000000
C    -1.774000000     0.060000000    -4.460000000
H    -1.116000000    -0.358000000    -5.217000000
C    -2.471000000     1.992000000    -3.177000000
C    -3.520000000     1.229000000    -2.630000000
H    -4.074000000     1.708000000    -1.828000000
C    -3.690000000    -0.151000000    -2.940000000
O    -4.563000000    -0.813000000    -2.095000000
C    -3.869000000    -1.530000000    -1.043000000
C    -4.751000000    -1.382000000     0.218000000
C    -4.758000000    -2.408000000     1.184000000
H    -4.189000000    -3.325000000     1.057000000
C    -5.436000000    -0.215000000     0.475000000
H    -5.586000000     0.515000000    -0.317000000
O    -3.665000000    -2.938000000    -1.438000000
H    -2.881000000    -1.080000000    -0.865000000
C    -2.773000000    -0.715000000    -3.840000000
C    -2.836000000    -2.205000000    -4.139000000
H    -2.535000000    -2.434000000    -5.164000000
H    -3.860000000    -2.571000000    -4.040000000
C    -1.967000000    -3.030000000    -3.243000000
C    -0.686000000    -3.430000000    -3.653000000
H    -0.434000000    -3.137000000    -4.669000000
C    -2.435000000    -3.390000000    -1.966000000
C    -1.620000000    -4.017000000    -1.075000000
H    -1.910000000    -4.248000000    -0.053000000
C    -0.336000000    -4.385000000    -1.447000000
O     0.454000000    -4.934000000    -0.449000000
C     1.376000000    -3.999000000     0.032000000
C     1.368000000    -4.111000000     1.549000000
C     0.154000000    -4.262000000     2.281000000
H    -0.760000000    -4.385000000     1.706000000
C     2.583000000    -3.815000000     2.252000000
H     3.540000000    -3.690000000     1.751000000
O     2.687000000    -4.201000000    -0.583000000
H     1.064000000    -2.971000000    -0.205000000
C     0.099000000    -4.120000000    -2.783000000
C     1.578000000    -4.392000000    -3.174000000
H     1.639000000    -4.592000000    -4.246000000
H     1.785000000    -5.361000000    -2.714000000
C     2.518000000    -3.268000000    -2.732000000
C     3.129000000    -3.294000000    -1.507000000
C     3.869000000    -2.239000000    -1.027000000
H     4.071000000    -2.246000000     0.041000000
C     4.139000000    -1.106000000    -1.800000000
O     4.865000000     0.009000000    -1.357000000
C     4.153000000     1.058000000    -0.759000000
H     3.065000000     0.892000000    -0.743000000
C     4.537000000     1.547000000     0.576000000
C     4.064000000     2.790000000     1.085000000
H     3.450000000     3.460000000     0.488000000
C     5.190000000     0.676000000     1.405000000
H     5.672000000    -0.225000000     1.034000000
C     5.442000000     1.046000000     2.733000000
O     6.175000000     0.339000000     3.605000000
C     5.005000000     2.213000000     3.225000000
H     5.295000000     2.448000000     4.246000000
C     4.320000000     3.112000000     2.442000000
O     3.796000000     4.215000000     3.020000000
C     3.359000000     5.289000000     2.309000000
C     1.974000000     5.496000000     2.169000000
H     1.340000000     4.865000000     2.788000000
C     4.280000000     6.167000000     1.713000000
H     5.324000000     6.214000000     2.014000000
C     3.743000000     7.234000000     0.976000000
H     4.458000000     7.880000000     0.475000000
C     2.323000000     7.462000000     0.817000000
H     1.901000000     8.273000000     0.229000000
C     1.506000000     6.590000000     1.456000000
O     0.179000000     6.862000000     1.487000000
C    -0.764000000     6.048000000     0.851000000
C    -2.082000000     6.010000000     1.346000000
H    -2.339000000     6.697000000     2.148000000
C    -3.023000000     5.211000000     0.684000000
O    -4.265000000     5.064000000     1.230000000
C    -5.284000000     4.292000000     0.806000000
C    -5.566000000     3.144000000     1.477000000
H    -4.889000000     2.777000000     2.245000000
C    -5.981000000     4.631000000    -0.352000000
H    -5.748000000     5.591000000    -0.807000000
C    -7.106000000     3.868000000    -0.730000000
H    -7.728000000     4.158000000    -1.573000000
C    -7.382000000     2.710000000    -0.015000000
H    -8.202000000     2.054000000    -0.297000000
C    -6.658000000     2.316000000     1.118000000
O    -6.949000000     1.124000000     1.791000000
C    -6.186000000    -0.038000000     1.630000000
C    -6.104000000    -1.089000000     2.608000000
H    -6.662000000    -0.977000000     3.534000000
C    -5.435000000    -2.264000000     2.418000000
O    -5.463000000    -3.308000000     3.392000000
C    -4.464000000    -4.223000000     3.486000000
C    -3.177000000    -3.845000000     3.802000000
H    -3.014000000    -2.788000000     3.998000000
C    -4.760000000    -5.530000000     3.180000000
H    -5.771000000    -5.890000000     3.007000000
C    -3.739000000    -6.485000000     3.249000000
H    -3.935000000    -7.532000000     3.033000000
C    -2.394000000    -6.149000000     3.641000000
H    -1.657000000    -6.932000000     3.802000000
C    -2.142000000    -4.791000000     3.935000000
O    -0.979000000    -4.405000000     4.426000000
C     0.193000000    -4.247000000     3.658000000
C     1.407000000    -4.041000000     4.350000000
H     1.441000000    -3.907000000     5.428000000
C     2.557000000    -3.782000000     3.642000000
O     3.755000000    -3.606000000     4.351000000
C     4.888000000    -3.065000000     3.823000000
C     5.938000000    -3.815000000     3.218000000
H     5.704000000    -4.863000000     3.047000000
C     7.097000000    -3.179000000     2.791000000
H     7.933000000    -3.689000000     2.319000000
C     7.220000000    -1.805000000     2.947000000
H     8.179000000    -1.347000000     2.717000000
C     6.186000000    -1.058000000     3.500000000
C     5.061000000    -1.715000000     4.008000000
H     4.288000000    -1.069000000     4.416000000
C    -0.638000000    -0.523000000     1.348000000
H    -1.140000000    -1.426000000     1.685000000
C    -0.202000000    -0.456000000     0.047000000
H    -0.331000000    -1.219000000    -0.717000000
C     0.411000000     0.767000000    -0.315000000
H     1.066000000     0.765000000    -1.186000000
C     0.642000000     1.763000000     0.572000000
H     1.164000000     2.671000000     0.282000000
C     0.106000000     1.644000000     1.872000000
H     0.198000000     2.504000000     2.530000000
C    -0.564000000     0.505000000     2.270000000
C    -1.058000000     0.362000000     3.680000000
O    -1.518000000     1.319000000     4.158000000
O    -1.219000000    -0.745000000     4.080000000
O    -2.088000000     3.425000000     5.535000000
H    -2.428000000     3.020000000     6.333000000
H    -1.878000000     2.686000000     4.963000000
O    -4.273000000     0.828000000     4.606000000
H    -4.261000000     0.052000000     4.046000000
H    -3.350000000     1.051000000     4.727000000
O     0.388000000    -1.085000000     6.158000000
H    -0.144000000    -1.164000000     5.366000000
H     0.608000000    -0.155000000     6.207000000
O    -0.627000000    -2.952000000     7.884000000
H    -0.544000000    -2.989000000     8.837000000
H    -0.191000000    -2.136000000     7.637000000
O     0.980000000    -0.733000000     9.221000000
H     0.616000000     0.074000000     8.858000000
H     0.685000000    -0.741000000    10.132000000
O    -3.167000000     5.926000000     4.538000000
H    -2.894000000     5.052000000     4.816000000
H    -2.389000000     6.470000000     4.659000000
O    -2.830000000    -2.022000000     6.046000000
H    -2.275000000    -1.463000000     5.501000000
H    -2.220000000    -2.630000000     6.465000000
O    -3.996000000    -1.087000000     8.403000000
H    -3.403000000    -0.695000000     9.043000000
H    -3.444000000    -1.264000000     7.641000000
O    -5.521000000     4.622000000     4.028000000
H    -4.733000000     5.084000000     4.313000000
H    -5.195000000     3.898000000     3.493000000
O     0.607000000     1.835000000     5.969000000
H     1.169000000     2.583000000     5.766000000
H    -0.005000000     1.789000000     5.234000000
O     4.577000000     2.258000000     8.055000000
H     4.381000000     3.163000000     8.295000000
H     3.720000000     1.835000000     7.993000000
O    -4.600000000    -5.084000000     6.571000000
H    -4.306000000    -4.489000000     5.882000000
H    -4.522000000    -4.573000000     7.377000000
O    -3.577000000     2.603000000     8.009000000
H    -3.461000000     1.966000000     8.715000000
H    -4.424000000     2.381000000     7.622000000
O    -0.149000000     1.748000000     8.466000000
H     0.022000000     2.024000000     7.566000000
H    -1.088000000     1.888000000     8.586000000
O    -2.958000000     5.145000000     8.296000000
H    -3.583000000     5.410000000     8.971000000
H    -3.230000000     4.261000000     8.051000000
O     2.570000000    -2.323000000     7.734000000
H     2.150000000    -2.070000000     6.912000000
H     1.978000000    -2.002000000     8.414000000
O    -6.059000000     1.818000000     6.839000000
H    -6.498000000     1.040000000     7.182000000
H    -5.615000000     1.514000000     6.047000000
O     2.097000000     4.285000000     5.540000000
H     2.606000000     4.527000000     6.313000000
H     2.752000000     4.134000000     4.859000000
O    -0.467000000    -5.797000000     7.303000000
H    -1.100000000    -5.767000000     6.586000000
H    -0.437000000    -4.899000000     7.633000000
