215
-1446.27678
C    -2.749000000     4.956000000    -0.752000000
H    -3.605000000     4.437000000    -1.175000000
C    -1.446000000     4.858000000    -1.291000000
C    -0.442000000     5.686000000    -0.752000000
H     0.566000000     5.636000000    -1.154000000
C    -1.116000000     3.800000000    -2.318000000
O    -2.160000000     3.484000000    -3.217000000
H    -0.908000000     2.896000000    -1.728000000
O     0.123000000     4.119000000    -2.958000000
C     0.967000000     3.159000000    -3.251000000
C     2.117000000     3.052000000    -2.359000000
H     2.398000000     3.838000000    -1.664000000
C     2.912000000     1.947000000    -2.457000000
O     4.021000000     1.812000000    -1.661000000
C     2.744000000     1.096000000    -3.545000000
C     3.717000000    -0.064000000    -3.899000000
H     3.609000000    -0.490000000    -4.899000000
C     3.588000000    -1.312000000    -3.021000000
C     2.705000000    -2.355000000    -3.484000000
H     2.226000000    -2.181000000    -4.444000000
H     4.741000000     0.304000000    -3.809000000
C     1.652000000     1.288000000    -4.382000000
H     1.522000000     0.632000000    -5.239000000
C     0.709000000     2.257000000    -4.233000000
C    -0.497000000     2.330000000    -5.146000000
H    -0.349000000     1.902000000    -6.140000000
H    -0.756000000     3.366000000    -5.375000000
C    -1.672000000     1.582000000    -4.513000000
C    -1.851000000     0.205000000    -4.780000000
H    -1.333000000    -0.307000000    -5.586000000
C    -2.392000000     2.205000000    -3.523000000
C    -3.294000000     1.487000000    -2.815000000
H    -3.917000000     1.998000000    -2.085000000
C    -3.516000000     0.127000000    -3.043000000
O    -4.301000000    -0.553000000    -2.191000000
C    -3.693000000    -1.250000000    -1.061000000
C    -4.297000000    -1.114000000     0.307000000
C    -4.304000000    -2.139000000     1.258000000
H    -3.766000000    -3.065000000     1.069000000
C    -5.008000000     0.039000000     0.602000000
H    -4.892000000     0.859000000    -0.102000000
O    -3.535000000    -2.623000000    -1.422000000
H    -2.681000000    -0.824000000    -0.997000000
C    -2.701000000    -0.571000000    -3.949000000
C    -2.892000000    -2.039000000    -4.193000000
H    -2.684000000    -2.157000000    -5.259000000
H    -3.921000000    -2.393000000    -4.095000000
C    -2.006000000    -2.733000000    -3.260000000
C    -0.716000000    -3.130000000    -3.640000000
H    -0.292000000    -2.874000000    -4.608000000
C    -2.368000000    -3.084000000    -1.943000000
C    -1.619000000    -3.890000000    -1.061000000
H    -1.926000000    -4.082000000    -0.036000000
C    -0.367000000    -4.366000000    -1.477000000
O     0.442000000    -4.974000000    -0.580000000
C     1.406000000    -4.156000000     0.136000000
C     1.397000000    -4.526000000     1.631000000
C     0.169000000    -4.924000000     2.231000000
H    -0.720000000    -5.020000000     1.613000000
C     2.476000000    -4.286000000     2.442000000
H     3.375000000    -3.814000000     2.053000000
O     2.699000000    -4.410000000    -0.463000000
H     1.273000000    -3.071000000     0.014000000
C     0.060000000    -3.980000000    -2.793000000
C     1.412000000    -4.473000000    -3.215000000
H     1.504000000    -4.635000000    -4.292000000
H     1.788000000    -5.430000000    -2.845000000
C     2.433000000    -3.474000000    -2.716000000
C     3.077000000    -3.518000000    -1.474000000
C     3.832000000    -2.499000000    -0.955000000
H     4.064000000    -2.508000000     0.107000000
C     4.105000000    -1.375000000    -1.768000000
O     4.780000000    -0.337000000    -1.172000000
C     3.933000000     0.718000000    -0.744000000
H     2.877000000     0.415000000    -0.694000000
C     4.229000000     1.233000000     0.650000000
C     3.879000000     2.537000000     1.059000000
H     3.432000000     3.173000000     0.300000000
C     4.855000000     0.410000000     1.540000000
H     5.077000000    -0.639000000     1.359000000
C     5.084000000     0.833000000     2.783000000
O     5.794000000     0.019000000     3.671000000
C     4.747000000     2.059000000     3.258000000
H     4.960000000     2.265000000     4.304000000
C     4.124000000     2.942000000     2.394000000
O     3.451000000     4.058000000     2.844000000
C     3.177000000     5.197000000     2.075000000
C     1.855000000     5.576000000     1.749000000
H     0.984000000     4.966000000     1.975000000
C     4.216000000     5.989000000     1.635000000
H     5.228000000     5.669000000     1.868000000
C     4.042000000     7.210000000     0.960000000
H     4.815000000     7.902000000     0.636000000
C     2.741000000     7.535000000     0.648000000
H     2.595000000     8.472000000     0.116000000
C     1.646000000     6.779000000     1.036000000
O     0.358000000     7.305000000     0.923000000
C    -0.698000000     6.533000000     0.359000000
C    -1.966000000     6.480000000     0.908000000
H    -2.220000000     7.038000000     1.806000000
C    -2.963000000     5.771000000     0.344000000
O    -4.157000000     5.778000000     1.006000000
C    -5.112000000     4.795000000     0.833000000
C    -4.974000000     3.587000000     1.561000000
H    -4.140000000     3.444000000     2.243000000
C    -6.275000000     5.085000000     0.150000000
H    -6.367000000     6.036000000    -0.368000000
C    -7.228000000     4.081000000    -0.030000000
H    -8.107000000     4.348000000    -0.611000000
C    -7.092000000     2.812000000     0.619000000
H    -7.904000000     2.091000000     0.572000000
C    -5.985000000     2.625000000     1.470000000
O    -5.971000000     1.505000000     2.260000000
C    -5.537000000     0.235000000     1.849000000
C    -5.418000000    -0.741000000     2.862000000
H    -5.747000000    -0.583000000     3.886000000
C    -4.808000000    -1.961000000     2.562000000
O    -4.763000000    -2.886000000     3.590000000
C    -4.075000000    -4.118000000     3.336000000
C    -2.761000000    -4.368000000     3.742000000
H    -2.239000000    -3.690000000     4.412000000
C    -4.726000000    -5.062000000     2.554000000
H    -5.577000000    -4.722000000     1.969000000
C    -4.195000000    -6.313000000     2.533000000
H    -4.737000000    -7.116000000     2.041000000
C    -2.963000000    -6.633000000     3.075000000
H    -2.675000000    -7.680000000     3.099000000
C    -2.191000000    -5.635000000     3.630000000
O    -0.937000000    -5.895000000     4.144000000
C     0.122000000    -5.214000000     3.587000000
C     1.176000000    -4.956000000     4.356000000
H     1.139000000    -5.104000000     5.432000000
C     2.374000000    -4.427000000     3.856000000
O     3.311000000    -3.931000000     4.739000000
C     4.462000000    -3.288000000     4.278000000
C     5.635000000    -4.042000000     3.966000000
H     5.716000000    -5.106000000     4.171000000
C     6.759000000    -3.430000000     3.514000000
H     7.634000000    -3.985000000     3.187000000
C     6.736000000    -2.080000000     3.418000000
H     7.596000000    -1.570000000     2.990000000
C     5.653000000    -1.296000000     3.692000000
C     4.525000000    -1.915000000     4.229000000
H     3.602000000    -1.504000000     4.630000000
C    -0.277000000    -0.350000000     3.020000000
H    -0.101000000    -0.947000000     3.912000000
C    -0.010000000    -1.009000000     1.902000000
H     0.349000000    -2.026000000     2.039000000
C    -0.228000000    -0.438000000     0.680000000
H     0.019000000    -1.004000000    -0.178000000
C    -0.579000000     0.896000000     0.575000000
H    -0.715000000     1.324000000    -0.415000000
C    -0.883000000     1.579000000     1.730000000
H    -1.219000000     2.612000000     1.685000000
C    -0.769000000     0.988000000     3.028000000
C    -1.151000000     1.742000000     4.293000000
O    -1.713000000     2.816000000     4.258000000
O    -1.090000000     1.090000000     5.346000000
O    -2.491000000     5.533000000     4.660000000
H    -1.860000000     5.795000000     5.330000000
H    -2.278000000     4.618000000     4.476000000
O    -4.046000000     2.860000000     5.776000000
H    -4.382000000     1.980000000     5.949000000
H    -3.312000000     2.723000000     5.178000000
O     1.436000000     0.090000000     5.977000000
H     0.502000000     0.062000000     5.768000000
H     1.660000000     1.020000000     5.949000000
O    -0.424000000     8.102000000     3.780000000
H     0.302000000     8.710000000     3.921000000
H    -0.060000000     7.421000000     3.214000000
O     3.076000000     6.409000000     5.108000000
H     3.340000000     6.379000000     4.188000000
H     2.693000000     5.547000000     5.275000000
O    -1.319000000    -1.956000000     8.288000000
H    -1.154000000    -2.220000000     9.193000000
H    -0.916000000    -1.090000000     8.214000000
O     1.343000000    -0.198000000     9.567000000
H     0.747000000     0.551000000     9.556000000
H     2.016000000     0.041000000    10.204000000
O    -4.620000000     7.427000000     4.789000000
H    -3.928000000     6.789000000     4.616000000
H    -4.438000000     8.148000000     4.187000000
O    -2.964000000    -0.250000000     6.646000000
H    -2.306000000     0.225000000     6.139000000
H    -2.460000000    -0.880000000     7.162000000
O    -5.397000000     0.026000000     7.761000000
H    -5.098000000     0.615000000     8.454000000
H    -4.622000000    -0.119000000     7.218000000
O    -1.165000000     5.459000000     7.192000000
H    -0.650000000     4.667000000     7.036000000
H    -1.831000000     5.190000000     7.826000000
O    -6.206000000     4.612000000     5.222000000
H    -5.767000000     5.442000000     5.031000000
H    -5.508000000     3.958000000     5.182000000
O     0.109000000     2.939000000     7.082000000
H     0.936000000     2.883000000     6.604000000
H    -0.500000000     2.406000000     6.570000000
O    -3.799000000     1.209000000     9.863000000
H    -4.169000000     1.651000000    10.627000000
H    -3.425000000     0.400000000    10.212000000
O    -4.419000000     3.544000000     8.384000000
H    -4.168000000     3.551000000     7.460000000
H    -4.067000000     2.719000000     8.721000000
O    -0.733000000     1.933000000     9.577000000
H    -0.622000000     2.429000000     8.766000000
H    -1.657000000     1.683000000     9.581000000
O     2.053000000    -1.968000000     7.506000000
H     1.670000000    -1.279000000     6.962000000
H     2.002000000    -1.625000000     8.398000000
O     2.427000000     2.852000000     5.466000000
H     3.315000000     3.062000000     5.755000000
H     2.538000000     2.518000000     4.576000000
O    -1.629000000    -4.375000000     7.220000000
H    -1.855000000    -3.462000000     7.397000000
H    -0.687000000    -4.424000000     7.381000000
