215
-1468.22041
C    -2.188000000     3.882000000     1.391000000
H    -2.890000000     3.077000000     1.190000000
C    -1.316000000     4.294000000     0.373000000
C    -0.368000000     5.290000000     0.672000000
H     0.180000000     5.802000000    -0.116000000
C    -1.368000000     3.641000000    -1.058000000
O    -2.706000000     3.479000000    -1.507000000
H    -0.876000000     2.661000000    -0.976000000
O    -0.621000000     4.396000000    -2.091000000
C     0.157000000     3.583000000    -2.928000000
C     1.498000000     3.584000000    -2.674000000
H     1.928000000     4.106000000    -1.823000000
C     2.351000000     2.728000000    -3.352000000
O     3.586000000     2.594000000    -2.812000000
C     1.854000000     1.795000000    -4.353000000
C     2.766000000     0.779000000    -4.987000000
H     2.527000000     0.659000000    -6.045000000
C     2.558000000    -0.435000000    -4.199000000
C     1.553000000    -1.407000000    -4.425000000
H     0.828000000    -1.217000000    -5.212000000
H     3.821000000     1.058000000    -4.955000000
C     0.500000000     1.949000000    -4.710000000
H     0.173000000     1.341000000    -5.550000000
C    -0.353000000     2.806000000    -4.014000000
C    -1.820000000     2.752000000    -4.321000000
H    -1.995000000     2.441000000    -5.353000000
H    -2.066000000     3.816000000    -4.339000000
C    -2.669000000     1.907000000    -3.399000000
C    -3.083000000     0.626000000    -3.780000000
H    -2.821000000     0.211000000    -4.749000000
C    -3.079000000     2.299000000    -2.127000000
C    -3.843000000     1.468000000    -1.301000000
H    -4.098000000     1.789000000    -0.294000000
C    -4.289000000     0.258000000    -1.792000000
O    -4.865000000    -0.619000000    -0.929000000
C    -4.046000000    -1.572000000    -0.198000000
C    -4.468000000    -1.682000000     1.281000000
C    -4.266000000    -2.906000000     1.957000000
H    -4.043000000    -3.798000000     1.378000000
C    -4.946000000    -0.597000000     2.030000000
H    -4.950000000     0.408000000     1.616000000
O    -4.142000000    -2.857000000    -0.886000000
H    -3.012000000    -1.200000000    -0.210000000
C    -3.917000000    -0.162000000    -3.061000000
C    -4.155000000    -1.600000000    -3.518000000
H    -4.292000000    -1.573000000    -4.601000000
H    -5.059000000    -2.077000000    -3.133000000
C    -3.021000000    -2.482000000    -2.985000000
C    -1.904000000    -2.672000000    -3.784000000
H    -1.830000000    -2.206000000    -4.763000000
C    -3.114000000    -3.075000000    -1.762000000
C    -2.089000000    -3.914000000    -1.344000000
H    -2.029000000    -4.308000000    -0.333000000
C    -0.888000000    -3.965000000    -2.057000000
O     0.116000000    -4.598000000    -1.354000000
C     1.211000000    -3.824000000    -0.895000000
C     1.660000000    -4.318000000     0.496000000
C     0.731000000    -5.055000000     1.242000000
H    -0.226000000    -5.392000000     0.850000000
C     2.824000000    -3.761000000     1.060000000
H     3.522000000    -3.235000000     0.412000000
O     2.314000000    -3.898000000    -1.863000000
H     0.892000000    -2.781000000    -0.751000000
C    -0.786000000    -3.367000000    -3.307000000
C     0.508000000    -3.569000000    -4.133000000
H     0.296000000    -3.348000000    -5.181000000
H     0.783000000    -4.611000000    -3.953000000
C     1.491000000    -2.558000000    -3.665000000
C     2.435000000    -2.802000000    -2.676000000
C     3.302000000    -1.846000000    -2.269000000
H     3.950000000    -1.943000000    -1.402000000
C     3.396000000    -0.637000000    -3.046000000
O     4.334000000     0.345000000    -2.596000000
C     3.715000000     1.468000000    -1.850000000
H     2.716000000     1.300000000    -1.421000000
C     4.549000000     1.791000000    -0.609000000
C     4.409000000     3.079000000    -0.002000000
H     3.838000000     3.893000000    -0.442000000
C     5.408000000     0.873000000    -0.063000000
H     5.769000000    -0.032000000    -0.546000000
C     5.918000000     1.050000000     1.232000000
O     6.826000000     0.211000000     1.828000000
C     5.737000000     2.228000000     1.865000000
H     6.182000000     2.427000000     2.836000000
C     5.008000000     3.236000000     1.262000000
O     4.867000000     4.430000000     1.985000000
C     4.054000000     5.488000000     1.573000000
C     2.743000000     5.555000000     2.030000000
H     2.447000000     4.745000000     2.692000000
C     4.594000000     6.466000000     0.685000000
H     5.644000000     6.537000000     0.417000000
C     3.818000000     7.604000000     0.431000000
H     4.200000000     8.506000000    -0.040000000
C     2.558000000     7.672000000     0.980000000
H     2.026000000     8.614000000     0.875000000
C     1.986000000     6.678000000     1.792000000
O     0.696000000     6.766000000     2.221000000
C    -0.309000000     5.855000000     1.965000000
C    -1.201000000     5.440000000     2.989000000
H    -1.212000000     5.905000000     3.972000000
C    -2.196000000     4.487000000     2.656000000
O    -3.051000000     3.984000000     3.659000000
C    -4.231000000     3.400000000     3.373000000
C    -4.548000000     2.190000000     3.967000000
H    -3.906000000     1.632000000     4.644000000
C    -5.135000000     4.046000000     2.535000000
H    -5.034000000     5.037000000     2.101000000
C    -6.371000000     3.399000000     2.287000000
H    -7.161000000     3.857000000     1.698000000
C    -6.677000000     2.150000000     2.859000000
H    -7.648000000     1.689000000     2.702000000
C    -5.747000000     1.540000000     3.698000000
O    -5.956000000     0.248000000     4.135000000
C    -5.426000000    -0.803000000     3.324000000
C    -5.166000000    -2.051000000     3.945000000
H    -5.375000000    -2.243000000     4.995000000
C    -4.618000000    -3.120000000     3.291000000
O    -4.368000000    -4.260000000     4.002000000
C    -3.476000000    -5.157000000     3.538000000
C    -2.144000000    -5.034000000     3.795000000
H    -1.742000000    -4.127000000     4.240000000
C    -3.945000000    -6.224000000     2.775000000
H    -5.009000000    -6.316000000     2.574000000
C    -3.107000000    -7.279000000     2.451000000
H    -3.490000000    -8.220000000     2.064000000
C    -1.717000000    -7.126000000     2.704000000
H    -0.994000000    -7.896000000     2.448000000
C    -1.233000000    -5.969000000     3.340000000
O     0.101000000    -5.834000000     3.441000000
C     0.966000000    -5.134000000     2.602000000
C     2.175000000    -4.628000000     3.164000000
H     2.354000000    -4.690000000     4.234000000
C     3.027000000    -3.956000000     2.451000000
O     4.081000000    -3.429000000     3.176000000
C     5.175000000    -2.935000000     2.499000000
C     5.961000000    -3.795000000     1.710000000
H     5.718000000    -4.851000000     1.621000000
C     7.072000000    -3.332000000     1.105000000
H     7.756000000    -3.978000000     0.560000000
C     7.406000000    -1.983000000     1.200000000
H     8.344000000    -1.690000000     0.736000000
C     6.571000000    -1.092000000     1.757000000
C     5.414000000    -1.544000000     2.387000000
H     4.801000000    -0.775000000     2.850000000
C    -0.301000000    -0.270000000     2.007000000
H    -0.528000000    -0.730000000     2.966000000
C    -0.664000000    -0.899000000     0.828000000
H    -1.201000000    -1.844000000     0.827000000
C    -0.282000000    -0.361000000    -0.414000000
H    -0.546000000    -0.749000000    -1.397000000
C     0.440000000     0.854000000    -0.371000000
H     0.844000000     1.161000000    -1.332000000
C     0.776000000     1.518000000     0.838000000
H     1.432000000     2.379000000     0.934000000
C     0.456000000     0.944000000     2.061000000
C     0.801000000     1.552000000     3.380000000
O     1.437000000     2.539000000     3.516000000
O     0.409000000     0.945000000     4.381000000
O     1.113000000     4.879000000     4.916000000
H     1.110000000     4.120000000     4.333000000
H     1.649000000     4.606000000     5.661000000
O    -1.721000000     1.766000000     5.876000000
H    -1.590000000     2.701000000     6.033000000
H    -1.192000000     1.577000000     5.101000000
O    -0.634000000    -0.995000000     5.729000000
H    -0.325000000    -0.244000000     5.221000000
H    -1.560000000    -1.074000000     5.498000000
O     0.970000000    -1.825000000     9.376000000
H     0.772000000    -2.052000000    10.285000000
H     0.802000000    -0.884000000     9.323000000
O     1.139000000    -2.992000000     6.736000000
H     0.921000000    -2.444000000     5.983000000
H     0.881000000    -2.469000000     7.495000000
O    -0.886000000     4.440000000     7.001000000
H    -0.306000000     4.663000000     6.273000000
H    -1.402000000     5.234000000     7.148000000
O     6.631000000     0.501000000     4.651000000
H     6.359000000     0.353000000     5.557000000
H     5.927000000     1.029000000     4.273000000
O     2.130000000     0.793000000     6.411000000
H     1.740000000     0.826000000     5.538000000
H     1.440000000     0.433000000     6.968000000
O    -3.533000000     0.084000000     6.959000000
H    -4.309000000     0.629000000     7.082000000
H    -2.869000000     0.685000000     6.621000000
O     5.391000000     0.017000000     7.086000000
H     4.612000000     0.058000000     6.531000000
H     5.159000000    -0.601000000     7.779000000
O     3.943000000     1.871000000     4.839000000
H     3.351000000     1.499000000     5.494000000
H     3.368000000     2.151000000     4.128000000
O     3.643000000     6.736000000     7.006000000
H     3.548000000     5.830000000     7.297000000
H     3.193000000     7.252000000     7.676000000
O    -3.782000000     3.952000000     6.277000000
H    -3.566000000     4.034000000     5.348000000
H    -2.951000000     4.097000000     6.729000000
O     3.601000000    -2.218000000     5.616000000
H     3.668000000    -2.483000000     4.699000000
H     2.796000000    -2.633000000     5.926000000
O    -0.079000000     0.651000000     8.037000000
H    -0.728000000     0.659000000     8.741000000
H    -0.593000000     0.540000000     7.238000000
O     1.081000000     5.525000000     9.318000000
H     1.795000000     4.900000000     9.445000000
H     0.447000000     5.057000000     8.774000000
O     5.539000000     5.511000000     5.457000000
H     4.805000000     5.180000000     4.939000000
H     5.128000000     5.983000000     6.181000000
O     1.601000000     2.384000000     9.317000000
H     1.054000000     1.878000000     8.716000000
H     2.418000000     1.888000000     9.371000000
O     2.572000000     3.881000000     7.097000000
H     2.349000000     2.958000000     7.221000000
H     3.234000000     4.059000000     7.765000000
