215
-1460.32246
C    -2.519000000     4.405000000     0.565000000
H    -3.406000000     3.796000000     0.412000000
C    -1.562000000     4.532000000    -0.395000000
C    -0.485000000     5.390000000    -0.182000000
H     0.286000000     5.544000000    -0.932000000
C    -1.616000000     3.598000000    -1.583000000
O    -2.957000000     3.319000000    -2.053000000
H    -1.058000000     2.725000000    -1.214000000
O    -0.874000000     4.105000000    -2.615000000
C     0.016000000     3.279000000    -3.290000000
C     1.405000000     3.343000000    -2.965000000
H     1.749000000     4.131000000    -2.301000000
C     2.230000000     2.363000000    -3.449000000
O     3.479000000     2.305000000    -2.823000000
C     1.736000000     1.354000000    -4.293000000
C     2.664000000     0.265000000    -4.813000000
H     2.374000000    -0.004000000    -5.831000000
C     2.721000000    -0.969000000    -3.859000000
C     1.800000000    -1.988000000    -4.112000000
H     1.114000000    -2.074000000    -4.951000000
H     3.650000000     0.716000000    -4.944000000
C     0.458000000     1.378000000    -4.801000000
H     0.121000000     0.672000000    -5.556000000
C    -0.404000000     2.365000000    -4.260000000
C    -1.929000000     2.341000000    -4.662000000
H    -2.035000000     1.889000000    -5.650000000
H    -2.418000000     3.306000000    -4.813000000
C    -2.798000000     1.484000000    -3.735000000
C    -3.114000000     0.172000000    -4.051000000
H    -2.757000000    -0.265000000    -4.980000000
C    -3.230000000     2.031000000    -2.517000000
C    -3.919000000     1.212000000    -1.638000000
H    -4.184000000     1.708000000    -0.708000000
C    -4.275000000    -0.102000000    -1.882000000
O    -4.778000000    -0.868000000    -0.832000000
C    -3.859000000    -1.700000000    -0.128000000
C    -4.024000000    -1.560000000     1.390000000
C    -3.606000000    -2.520000000     2.227000000
H    -3.207000000    -3.406000000     1.739000000
C    -4.634000000    -0.402000000     1.899000000
H    -4.851000000     0.439000000     1.246000000
O    -3.889000000    -3.048000000    -0.534000000
H    -2.856000000    -1.311000000    -0.357000000
C    -3.852000000    -0.631000000    -3.142000000
C    -3.957000000    -2.145000000    -3.407000000
H    -3.884000000    -2.314000000    -4.484000000
H    -4.880000000    -2.518000000    -2.959000000
C    -2.823000000    -2.896000000    -2.691000000
C    -1.649000000    -3.129000000    -3.442000000
H    -1.634000000    -2.953000000    -4.515000000
C    -2.950000000    -3.410000000    -1.387000000
C    -1.874000000    -4.133000000    -0.835000000
H    -1.987000000    -4.616000000     0.133000000
C    -0.706000000    -4.316000000    -1.536000000
O     0.306000000    -4.876000000    -0.877000000
C     1.392000000    -4.041000000    -0.357000000
C     1.733000000    -4.380000000     1.072000000
C     0.873000000    -5.194000000     1.831000000
H     0.068000000    -5.811000000     1.439000000
C     2.661000000    -3.614000000     1.715000000
H     3.282000000    -2.963000000     1.106000000
O     2.495000000    -4.160000000    -1.232000000
H     1.086000000    -2.984000000    -0.371000000
C    -0.551000000    -3.833000000    -2.824000000
C     0.680000000    -4.047000000    -3.545000000
H     0.444000000    -4.181000000    -4.603000000
H     0.969000000    -5.091000000    -3.409000000
C     1.772000000    -3.091000000    -3.303000000
C     2.624000000    -3.218000000    -2.245000000
C     3.521000000    -2.201000000    -1.990000000
H     4.134000000    -2.275000000    -1.095000000
C     3.543000000    -1.055000000    -2.755000000
O     4.277000000     0.051000000    -2.362000000
C     3.608000000     1.275000000    -1.808000000
H     2.588000000     1.076000000    -1.448000000
C     4.373000000     1.820000000    -0.642000000
C     4.287000000     3.140000000    -0.262000000
H     3.663000000     3.842000000    -0.810000000
C     5.167000000     0.927000000     0.042000000
H     5.163000000    -0.119000000    -0.254000000
C     5.949000000     1.332000000     1.141000000
O     6.799000000     0.429000000     1.770000000
C     5.857000000     2.665000000     1.469000000
H     6.383000000     3.038000000     2.344000000
C     4.988000000     3.558000000     0.896000000
O     4.980000000     4.830000000     1.345000000
C     4.105000000     5.746000000     0.840000000
C     2.803000000     5.857000000     1.247000000
H     2.480000000     4.977000000     1.797000000
C     4.626000000     6.849000000     0.218000000
H     5.709000000     6.878000000     0.129000000
C     3.796000000     7.841000000    -0.273000000
H     4.238000000     8.647000000    -0.854000000
C     2.403000000     7.930000000     0.078000000
H     1.790000000     8.705000000    -0.374000000
C     1.896000000     6.911000000     0.910000000
O     0.577000000     7.002000000     1.379000000
C    -0.344000000     6.000000000     1.098000000
C    -1.364000000     5.938000000     2.001000000
H    -1.387000000     6.592000000     2.869000000
C    -2.497000000     5.147000000     1.786000000
O    -3.454000000     4.983000000     2.751000000
C    -4.481000000     4.035000000     2.599000000
C    -4.406000000     2.731000000     3.138000000
H    -3.503000000     2.293000000     3.555000000
C    -5.726000000     4.511000000     2.210000000
H    -5.862000000     5.541000000     1.889000000
C    -6.879000000     3.728000000     2.219000000
H    -7.840000000     4.093000000     1.866000000
C    -6.788000000     2.403000000     2.703000000
H    -7.706000000     1.892000000     2.978000000
C    -5.608000000     1.956000000     3.221000000
O    -5.596000000     0.702000000     3.774000000
C    -4.875000000    -0.317000000     3.278000000
C    -4.465000000    -1.373000000     4.101000000
H    -4.733000000    -1.343000000     5.154000000
C    -3.862000000    -2.468000000     3.592000000
O    -3.732000000    -3.566000000     4.482000000
C    -3.152000000    -4.733000000     4.086000000
C    -1.791000000    -4.811000000     4.084000000
H    -1.289000000    -3.952000000     4.521000000
C    -3.932000000    -5.882000000     3.787000000
H    -5.002000000    -5.775000000     3.629000000
C    -3.249000000    -7.025000000     3.406000000
H    -3.803000000    -7.894000000     3.060000000
C    -1.881000000    -7.101000000     3.543000000
H    -1.317000000    -7.970000000     3.213000000
C    -1.121000000    -6.040000000     3.952000000
O     0.249000000    -6.224000000     3.998000000
C     1.074000000    -5.387000000     3.253000000
C     2.037000000    -4.519000000     3.906000000
H     2.074000000    -4.462000000     4.991000000
C     2.888000000    -3.700000000     3.134000000
O     3.866000000    -2.882000000     3.680000000
C     4.968000000    -2.554000000     2.916000000
C     5.703000000    -3.550000000     2.297000000
H     5.449000000    -4.567000000     2.585000000
C     6.759000000    -3.301000000     1.503000000
H     7.355000000    -4.138000000     1.150000000
C     7.098000000    -1.947000000     1.266000000
H     7.994000000    -1.671000000     0.714000000
C     6.388000000    -0.888000000     1.860000000
C     5.265000000    -1.180000000     2.640000000
H     4.607000000    -0.392000000     2.999000000
C     0.105000000    -0.958000000     2.384000000
H     0.123000000    -1.762000000     3.115000000
C    -0.265000000    -1.141000000     1.030000000
H    -0.629000000    -2.069000000     0.595000000
C    -0.204000000    -0.106000000     0.135000000
H    -0.321000000    -0.181000000    -0.914000000
C     0.280000000     1.126000000     0.534000000
H     0.291000000     1.924000000    -0.204000000
C     0.710000000     1.336000000     1.827000000
H     1.045000000     2.327000000     2.123000000
C     0.669000000     0.306000000     2.773000000
C     1.020000000     0.566000000     4.192000000
O     1.560000000     1.610000000     4.565000000
O     0.781000000    -0.236000000     5.040000000
O     1.026000000     4.094000000     3.970000000
H     1.265000000     3.191000000     4.182000000
H     0.078000000     4.127000000     4.096000000
O    -1.488000000     1.118000000     6.160000000
H    -0.873000000     1.270000000     6.878000000
H    -1.047000000     0.480000000     5.599000000
O    -0.102000000    -1.771000000     6.956000000
H     0.221000000    -1.365000000     6.152000000
H    -0.995000000    -2.044000000     6.744000000
O    -0.109000000    -0.599000000     9.420000000
H    -0.787000000     0.068000000     9.314000000
H    -0.172000000    -1.133000000     8.629000000
O     2.562000000     0.351000000     8.954000000
H     1.640000000     0.139000000     9.100000000
H     2.696000000     0.204000000     8.018000000
O    -1.858000000     3.849000000     5.190000000
H    -1.970000000     2.940000000     5.468000000
H    -1.652000000     4.322000000     5.996000000
O     6.317000000     0.873000000     5.439000000
H     5.880000000     0.068000000     5.717000000
H     5.613000000     1.419000000     5.090000000
O     0.903000000     2.244000000     7.428000000
H     0.849000000     1.704000000     6.639000000
H     1.837000000     2.268000000     7.638000000
O    -0.767000000     4.442000000     7.662000000
H    -0.363000000     5.190000000     8.101000000
H    -0.032000000     3.876000000     7.428000000
O    -4.109000000     0.845000000     6.854000000
H    -4.681000000     1.377000000     6.301000000
H    -3.269000000     0.839000000     6.393000000
O     5.671000000    -2.014000000     6.247000000
H     5.071000000    -2.665000000     5.884000000
H     5.944000000    -2.382000000     7.087000000
O     4.141000000     1.987000000     4.299000000
H     4.153000000     2.943000000     4.268000000
H     3.213000000     1.757000000     4.252000000
O     2.901000000    -0.388000000     6.345000000
H     2.007000000    -0.209000000     6.055000000
H     3.454000000    -0.058000000     5.637000000
O    -2.685000000     0.755000000     9.160000000
H    -3.242000000     0.413000000     9.860000000
H    -3.183000000     0.594000000     8.358000000
O     4.042000000     4.344000000     5.772000000
H     3.372000000     5.025000000     5.716000000
H     4.865000000     4.803000000     5.603000000
O     4.449000000     3.988000000     8.792000000
H     4.598000000     3.902000000     7.850000000
H     4.563000000     4.922000000     8.968000000
O     2.336000000     6.406000000     5.300000000
H     1.868000000     5.851000000     4.675000000
H     1.646000000     6.790000000     5.841000000
O    -2.677000000    -2.514000000     7.410000000
H    -2.749000000    -2.811000000     8.317000000
H    -3.390000000    -2.963000000     6.954000000
O     2.414000000    -2.829000000     7.270000000
H     1.498000000    -2.555000000     7.298000000
H     2.894000000    -2.036000000     7.029000000
