215
-1450.51938
C    -2.832000000     4.673000000     0.311000000
H    -3.534000000     3.884000000     0.052000000
C    -1.694000000     4.915000000    -0.435000000
C    -0.802000000     5.883000000    -0.034000000
H     0.076000000     6.074000000    -0.646000000
C    -1.374000000     3.923000000    -1.571000000
O    -2.627000000     3.623000000    -2.329000000
H    -0.966000000     3.049000000    -1.042000000
O    -0.383000000     4.574000000    -2.500000000
C     0.476000000     3.639000000    -2.922000000
C     1.695000000     3.523000000    -2.310000000
H     1.938000000     4.213000000    -1.506000000
C     2.600000000     2.573000000    -2.657000000
O     3.710000000     2.407000000    -1.847000000
C     2.366000000     1.705000000    -3.781000000
C     3.417000000     0.644000000    -4.172000000
H     3.209000000     0.370000000    -5.208000000
C     3.318000000    -0.621000000    -3.359000000
C     2.596000000    -1.739000000    -3.937000000
H     2.275000000    -1.635000000    -4.970000000
H     4.388000000     1.140000000    -4.117000000
C     1.151000000     1.814000000    -4.431000000
H     1.061000000     1.157000000    -5.292000000
C     0.165000000     2.766000000    -4.020000000
C    -1.099000000     2.923000000    -4.738000000
H    -1.013000000     2.667000000    -5.797000000
H    -1.559000000     3.913000000    -4.693000000
C    -2.150000000     1.952000000    -4.053000000
C    -2.233000000     0.619000000    -4.471000000
H    -1.666000000     0.375000000    -5.365000000
C    -2.768000000     2.383000000    -2.873000000
C    -3.607000000     1.482000000    -2.249000000
H    -4.092000000     1.742000000    -1.311000000
C    -3.791000000     0.165000000    -2.697000000
O    -4.555000000    -0.721000000    -1.920000000
C    -3.830000000    -1.593000000    -0.977000000
C    -4.520000000    -1.602000000     0.372000000
C    -4.194000000    -2.544000000     1.313000000
H    -3.451000000    -3.303000000     1.083000000
C    -5.310000000    -0.525000000     0.825000000
H    -5.475000000     0.247000000     0.079000000
O    -3.736000000    -2.950000000    -1.555000000
H    -2.821000000    -1.193000000    -0.797000000
C    -3.026000000    -0.321000000    -3.790000000
C    -3.076000000    -1.789000000    -4.220000000
H    -3.088000000    -1.856000000    -5.310000000
H    -4.134000000    -2.005000000    -4.057000000
C    -2.199000000    -2.773000000    -3.448000000
C    -0.935000000    -3.051000000    -3.996000000
H    -0.522000000    -2.609000000    -4.900000000
C    -2.570000000    -3.292000000    -2.194000000
C    -1.723000000    -4.067000000    -1.493000000
H    -2.038000000    -4.375000000    -0.499000000
C    -0.443000000    -4.274000000    -1.933000000
O     0.449000000    -4.911000000    -1.053000000
C     1.504000000    -4.091000000    -0.457000000
C     1.776000000    -4.484000000     0.981000000
C     0.716000000    -4.881000000     1.783000000
H    -0.250000000    -5.148000000     1.363000000
C     3.047000000    -4.293000000     1.544000000
H     3.875000000    -4.072000000     0.875000000
O     2.723000000    -4.084000000    -1.129000000
H     1.113000000    -3.064000000    -0.402000000
C    -0.005000000    -3.749000000    -3.181000000
C     1.386000000    -4.006000000    -3.664000000
H     1.444000000    -4.261000000    -4.724000000
H     1.734000000    -4.968000000    -3.283000000
C     2.336000000    -2.919000000    -3.205000000
C     2.913000000    -3.055000000    -1.944000000
C     3.619000000    -1.978000000    -1.327000000
H     4.028000000    -1.980000000    -0.320000000
C     3.837000000    -0.813000000    -2.050000000
O     4.466000000     0.217000000    -1.474000000
C     3.582000000     1.249000000    -0.984000000
H     2.529000000     0.936000000    -1.039000000
C     3.954000000     1.503000000     0.452000000
C     3.357000000     2.531000000     1.145000000
H     2.594000000     3.157000000     0.687000000
C     4.870000000     0.611000000     1.116000000
H     5.306000000    -0.238000000     0.597000000
C     5.098000000     0.811000000     2.453000000
O     5.964000000    -0.020000000     3.106000000
C     4.657000000     2.044000000     3.002000000
H     4.947000000     2.249000000     4.029000000
C     3.833000000     2.914000000     2.382000000
O     3.288000000     4.024000000     3.005000000
C     3.004000000     5.191000000     2.381000000
C     1.647000000     5.709000000     2.467000000
H     0.814000000     5.181000000     2.925000000
C     3.938000000     5.790000000     1.499000000
H     4.859000000     5.235000000     1.336000000
C     3.665000000     6.973000000     0.883000000
H     4.422000000     7.486000000     0.295000000
C     2.413000000     7.615000000     1.063000000
H     2.138000000     8.474000000     0.457000000
C     1.445000000     6.924000000     1.773000000
O     0.081000000     7.327000000     1.699000000
C    -0.892000000     6.461000000     1.274000000
C    -2.051000000     6.201000000     1.959000000
H    -2.300000000     6.695000000     2.894000000
C    -3.068000000     5.396000000     1.465000000
O    -4.172000000     4.964000000     2.308000000
C    -5.111000000     4.002000000     1.921000000
C    -5.330000000     2.758000000     2.564000000
H    -4.654000000     2.477000000     3.368000000
C    -6.113000000     4.372000000     0.992000000
H    -6.072000000     5.335000000     0.489000000
C    -7.077000000     3.518000000     0.554000000
H    -7.672000000     3.845000000    -0.294000000
C    -7.165000000     2.291000000     1.092000000
H    -7.901000000     1.549000000     0.792000000
C    -6.315000000     1.914000000     2.125000000
O    -6.426000000     0.683000000     2.689000000
C    -5.774000000    -0.421000000     2.138000000
C    -5.538000000    -1.470000000     3.022000000
H    -6.065000000    -1.564000000     3.968000000
C    -4.743000000    -2.498000000     2.620000000
O    -4.293000000    -3.450000000     3.552000000
C    -3.559000000    -4.568000000     3.361000000
C    -2.232000000    -4.617000000     3.760000000
H    -1.747000000    -3.821000000     4.319000000
C    -4.123000000    -5.625000000     2.663000000
H    -5.129000000    -5.453000000     2.291000000
C    -3.371000000    -6.724000000     2.342000000
H    -3.794000000    -7.474000000     1.679000000
C    -2.031000000    -6.793000000     2.793000000
H    -1.434000000    -7.606000000     2.388000000
C    -1.435000000    -5.764000000     3.547000000
O    -0.123000000    -5.736000000     3.942000000
C     0.890000000    -5.253000000     3.134000000
C     2.138000000    -5.094000000     3.696000000
H     2.327000000    -5.419000000     4.716000000
C     3.209000000    -4.652000000     2.907000000
O     4.438000000    -4.394000000     3.560000000
C     5.431000000    -3.536000000     3.242000000
C     6.719000000    -4.021000000     3.276000000
H     6.926000000    -5.085000000     3.364000000
C     7.768000000    -3.100000000     3.112000000
H     8.790000000    -3.447000000     2.978000000
C     7.490000000    -1.757000000     2.925000000
H     8.257000000    -0.987000000     2.936000000
C     6.256000000    -1.349000000     2.923000000
C     5.160000000    -2.237000000     2.989000000
H     4.132000000    -1.890000000     2.921000000
C    -0.489000000    -0.877000000     2.196000000
H    -0.624000000    -1.422000000     3.127000000
C    -0.610000000    -1.655000000     1.026000000
H    -0.940000000    -2.689000000     1.090000000
C    -0.440000000    -0.956000000    -0.220000000
H    -0.647000000    -1.542000000    -1.121000000
C     0.067000000     0.341000000    -0.256000000
H     0.202000000     0.885000000    -1.187000000
C     0.267000000     1.012000000     0.921000000
H     0.570000000     2.056000000     0.915000000
C    -0.034000000     0.448000000     2.189000000
C     0.063000000     1.124000000     3.480000000
O     0.301000000     2.318000000     3.466000000
O    -0.100000000     0.522000000     4.511000000
O    -1.771000000     3.815000000     4.096000000
H    -1.114000000     3.205000000     3.760000000
H    -2.035000000     4.327000000     3.332000000
O    -5.208000000     1.597000000     5.960000000
H    -4.277000000     1.816000000     5.964000000
H    -5.230000000     0.645000000     5.863000000
O    -1.601000000    -1.684000000     5.502000000
H    -1.141000000    -0.906000000     5.186000000
H    -2.440000000    -1.353000000     5.821000000
O     0.319000000    -2.350000000     7.447000000
H    -0.270000000    -1.829000000     7.993000000
H    -0.112000000    -2.381000000     6.592000000
O     1.187000000     0.490000000     8.493000000
H     0.754000000     1.322000000     8.683000000
H     1.396000000     0.536000000     7.559000000
O    -2.929000000     5.082000000     6.162000000
H    -2.962000000     4.620000000     7.000000000
H    -2.474000000     4.479000000     5.574000000
O     2.845000000    -3.189000000     7.352000000
H     2.004000000    -2.737000000     7.413000000
H     2.619000000    -4.119000000     7.360000000
O     5.352000000     4.146000000     6.356000000
H     5.660000000     3.244000000     6.440000000
H     4.397000000     4.074000000     6.341000000
O    -1.887000000     1.813000000     6.291000000
H    -1.159000000     1.393000000     5.833000000
H    -2.158000000     2.523000000     5.710000000
O    -2.608000000     3.441000000     8.559000000
H    -3.106000000     2.900000000     9.171000000
H    -1.734000000     3.050000000     8.549000000
O     5.957000000     1.360000000     6.181000000
H     5.610000000     0.469000000     6.159000000
H     6.675000000     1.353000000     5.548000000
O     1.908000000     3.484000000     5.271000000
H     2.582000000     3.783000000     4.661000000
H     1.224000000     3.116000000     4.711000000
O     2.260000000     0.257000000     5.609000000
H     1.417000000     0.110000000     5.178000000
H     2.339000000     1.210000000     5.660000000
O    -4.248000000    -0.957000000     6.148000000
H    -4.823000000    -0.828000000     6.902000000
H    -4.225000000    -1.906000000     6.024000000
O     2.977000000     6.277000000     6.669000000
H     2.067000000     5.992000000     6.583000000
H     3.091000000     6.927000000     5.975000000
O    -1.759000000     0.318000000     8.436000000
H    -2.003000000     0.893000000     7.711000000
H    -2.560000000     0.230000000     8.952000000
O     1.013000000     3.150000000     8.928000000
H     1.502000000     3.331000000     8.125000000
H     1.226000000     3.881000000     9.508000000
O    -0.093000000     6.396000000     6.959000000
H    -0.516000000     5.617000000     6.598000000
H    -0.536000000     6.544000000     7.794000000
O     4.523000000    -1.227000000     6.122000000
H     3.871000000    -0.546000000     5.956000000
H     4.016000000    -2.037000000     6.173000000
