215
-1464.62925
C    -2.479000000     4.140000000     0.462000000
H    -3.152000000     3.311000000     0.261000000
C    -1.420000000     4.441000000    -0.405000000
C    -0.510000000     5.454000000    -0.099000000
H     0.263000000     5.624000000    -0.845000000
C    -1.313000000     3.649000000    -1.678000000
O    -2.605000000     3.281000000    -2.208000000
H    -0.866000000     2.691000000    -1.375000000
O    -0.369000000     4.128000000    -2.640000000
C     0.481000000     3.228000000    -3.282000000
C     1.844000000     3.249000000    -2.966000000
H     2.109000000     4.011000000    -2.237000000
C     2.749000000     2.316000000    -3.349000000
O     3.933000000     2.192000000    -2.747000000
C     2.321000000     1.282000000    -4.173000000
C     3.262000000     0.210000000    -4.568000000
H     3.054000000     0.024000000    -5.624000000
C     3.176000000    -1.003000000    -3.650000000
C     2.378000000    -2.058000000    -3.980000000
H     1.901000000    -2.079000000    -4.957000000
H     4.287000000     0.581000000    -4.631000000
C     0.994000000     1.289000000    -4.673000000
H     0.614000000     0.433000000    -5.225000000
C     0.048000000     2.265000000    -4.225000000
C    -1.395000000     2.306000000    -4.714000000
H    -1.410000000     1.827000000    -5.695000000
H    -1.706000000     3.347000000    -4.826000000
C    -2.295000000     1.489000000    -3.829000000
C    -2.493000000     0.138000000    -4.145000000
H    -1.974000000    -0.286000000    -5.001000000
C    -2.917000000     2.013000000    -2.737000000
C    -3.803000000     1.258000000    -1.974000000
H    -4.223000000     1.655000000    -1.053000000
C    -3.928000000    -0.092000000    -2.262000000
O    -4.597000000    -0.844000000    -1.326000000
C    -3.871000000    -1.731000000    -0.451000000
C    -4.487000000    -1.763000000     0.946000000
C    -4.438000000    -2.934000000     1.678000000
H    -4.047000000    -3.867000000     1.280000000
C    -5.118000000    -0.591000000     1.405000000
H    -5.185000000     0.328000000     0.828000000
O    -3.867000000    -2.957000000    -1.149000000
H    -2.820000000    -1.408000000    -0.454000000
C    -3.356000000    -0.635000000    -3.428000000
C    -3.471000000    -2.110000000    -3.859000000
H    -3.376000000    -2.112000000    -4.947000000
H    -4.497000000    -2.376000000    -3.593000000
C    -2.478000000    -3.028000000    -3.070000000
C    -1.228000000    -3.396000000    -3.622000000
H    -0.931000000    -2.945000000    -4.565000000
C    -2.693000000    -3.313000000    -1.709000000
C    -1.761000000    -4.076000000    -0.999000000
H    -1.945000000    -4.274000000     0.054000000
C    -0.581000000    -4.498000000    -1.615000000
O     0.355000000    -5.059000000    -0.840000000
C     1.233000000    -4.030000000    -0.256000000
C     1.448000000    -4.195000000     1.221000000
C     0.464000000    -4.684000000     2.089000000
H    -0.455000000    -5.083000000     1.666000000
C     2.586000000    -3.561000000     1.768000000
H     3.261000000    -2.942000000     1.182000000
O     2.543000000    -4.126000000    -0.903000000
H     0.809000000    -3.026000000    -0.402000000
C    -0.241000000    -4.040000000    -2.889000000
C     1.117000000    -4.218000000    -3.587000000
H     0.872000000    -4.169000000    -4.650000000
H     1.520000000    -5.203000000    -3.344000000
C     2.189000000    -3.142000000    -3.171000000
C     2.766000000    -3.178000000    -1.923000000
C     3.591000000    -2.073000000    -1.521000000
H     3.971000000    -2.069000000    -0.503000000
C     3.828000000    -1.007000000    -2.416000000
O     4.596000000     0.046000000    -1.978000000
C     3.940000000     1.278000000    -1.638000000
H     2.869000000     1.095000000    -1.467000000
C     4.532000000     1.829000000    -0.367000000
C     4.300000000     3.184000000     0.044000000
H     3.668000000     3.844000000    -0.544000000
C     5.388000000     1.085000000     0.426000000
H     5.759000000     0.176000000    -0.043000000
C     5.826000000     1.551000000     1.684000000
O     6.701000000     0.751000000     2.406000000
C     5.516000000     2.813000000     2.090000000
H     5.857000000     3.140000000     3.068000000
C     4.806000000     3.656000000     1.273000000
O     4.508000000     4.888000000     1.775000000
C     3.705000000     5.844000000     1.152000000
C     2.396000000     5.994000000     1.706000000
H     2.070000000     5.513000000     2.624000000
C     4.196000000     6.462000000     0.003000000
H     5.183000000     6.218000000    -0.382000000
C     3.318000000     7.276000000    -0.652000000
H     3.546000000     7.700000000    -1.626000000
C     2.033000000     7.537000000    -0.148000000
H     1.345000000     8.199000000    -0.669000000
C     1.596000000     6.861000000     0.976000000
O     0.314000000     6.971000000     1.488000000
C    -0.615000000     6.099000000     1.087000000
C    -1.549000000     5.815000000     2.023000000
H    -1.550000000     6.322000000     2.984000000
C    -2.516000000     4.836000000     1.676000000
O    -3.336000000     4.343000000     2.617000000
C    -4.572000000     3.730000000     2.471000000
C    -4.811000000     2.445000000     2.904000000
H    -4.022000000     1.896000000     3.413000000
C    -5.573000000     4.390000000     1.862000000
H    -5.375000000     5.391000000     1.485000000
C    -6.829000000     3.826000000     1.803000000
H    -7.624000000     4.387000000     1.318000000
C    -7.089000000     2.552000000     2.224000000
H    -8.011000000     2.016000000     2.012000000
C    -6.003000000     1.797000000     2.731000000
O    -6.274000000     0.579000000     3.241000000
C    -5.608000000    -0.543000000     2.722000000
C    -5.493000000    -1.729000000     3.463000000
H    -5.976000000    -1.750000000     4.437000000
C    -5.014000000    -2.916000000     2.938000000
O    -4.928000000    -4.024000000     3.751000000
C    -3.938000000    -4.904000000     3.848000000
C    -2.616000000    -4.473000000     4.012000000
H    -2.458000000    -3.399000000     3.956000000
C    -4.281000000    -6.214000000     3.854000000
H    -5.320000000    -6.529000000     3.794000000
C    -3.240000000    -7.150000000     3.920000000
H    -3.455000000    -8.212000000     4.008000000
C    -1.903000000    -6.773000000     4.147000000
H    -1.172000000    -7.516000000     4.454000000
C    -1.583000000    -5.432000000     4.188000000
O    -0.222000000    -5.016000000     4.396000000
C     0.654000000    -4.620000000     3.441000000
C     1.743000000    -3.938000000     3.970000000
H     1.883000000    -4.038000000     5.043000000
C     2.733000000    -3.455000000     3.143000000
O     3.778000000    -2.768000000     3.730000000
C     4.894000000    -2.310000000     3.049000000
C     5.790000000    -3.272000000     2.585000000
H     5.629000000    -4.343000000     2.685000000
C     6.993000000    -2.886000000     1.986000000
H     7.717000000    -3.561000000     1.536000000
C     7.288000000    -1.525000000     1.962000000
H     8.223000000    -1.145000000     1.558000000
C     6.401000000    -0.553000000     2.446000000
C     5.150000000    -1.018000000     2.857000000
H     4.430000000    -0.279000000     3.198000000
C    -1.123000000     0.213000000     2.435000000
H    -1.646000000    -0.445000000     3.124000000
C    -0.795000000    -0.338000000     1.171000000
H    -1.051000000    -1.384000000     1.018000000
C    -0.097000000     0.469000000     0.271000000
H     0.312000000    -0.032000000    -0.613000000
C     0.337000000     1.762000000     0.654000000
H     0.947000000     2.335000000    -0.041000000
C    -0.049000000     2.264000000     1.889000000
H     0.298000000     3.251000000     2.184000000
C    -0.801000000     1.520000000     2.810000000
C    -0.979000000     1.932000000     4.288000000
O    -0.460000000     2.942000000     4.698000000
O    -1.603000000     1.253000000     5.075000000
O     0.035000000     6.332000000     5.285000000
H     0.788000000     5.806000000     5.016000000
H    -0.488000000     5.741000000     5.828000000
O    -3.889000000     1.867000000     6.379000000
H    -4.250000000     2.697000000     6.066000000
H    -3.045000000     1.791000000     5.936000000
O    -2.562000000    -1.230000000     5.384000000
H    -2.121000000    -0.440000000     5.073000000
H    -3.245000000    -0.908000000     5.972000000
O     1.626000000    -2.322000000     8.422000000
H     1.598000000    -1.365000000     8.430000000
H     0.863000000    -2.580000000     7.904000000
O    -1.289000000     4.700000000     6.802000000
H    -1.045000000     4.048000000     6.147000000
H    -1.945000000     4.261000000     7.344000000
O    -2.931000000     0.572000000     9.278000000
H    -3.250000000     1.309000000     9.799000000
H    -3.559000000     0.497000000     8.559000000
O     1.076000000     1.401000000     6.697000000
H     0.482000000     1.567000000     5.965000000
H     0.591000000     0.805000000     7.268000000
O    -4.499000000    -0.509000000     7.370000000
H    -5.428000000    -0.724000000     7.450000000
H    -4.480000000     0.275000000     6.822000000
O    -7.101000000     3.030000000     6.632000000
H    -7.434000000     3.790000000     7.109000000
H    -6.280000000     3.332000000     6.243000000
O     2.008000000     4.022000000     4.685000000
H     2.341000000     3.304000000     4.147000000
H     1.084000000     3.811000000     4.822000000
O    -4.690000000     4.380000000     5.500000000
H    -5.145000000     4.988000000     6.082000000
H    -3.863000000     4.817000000     5.296000000
O     2.180000000     0.299000000     4.351000000
H     2.061000000     0.703000000     5.210000000
H     2.144000000    -0.642000000     4.523000000
O    -0.569000000    -0.317000000     8.316000000
H    -0.836000000    -1.076000000     7.798000000
H    -1.391000000     0.062000000     8.628000000
O     0.418000000     5.416000000     8.948000000
H     0.702000000     4.608000000     8.519000000
H    -0.174000000     5.826000000     8.317000000
O     3.522000000     4.911000000     6.807000000
H     2.956000000     4.830000000     6.040000000
H     3.094000000     4.380000000     7.478000000
O    -1.630000000     8.605000000     4.920000000
H    -1.181000000     7.769000000     5.045000000
H    -2.556000000     8.372000000     4.858000000
O     2.356000000     2.940000000     8.527000000
H     1.788000000     2.528000000     7.876000000
H     2.651000000     2.217000000     9.080000000
O    -3.691000000     4.719000000     8.924000000
H    -4.442000000     5.124000000     8.489000000
H    -3.203000000     5.456000000     9.292000000
O    -0.746000000    -2.566000000     6.834000000
H    -1.400000000    -3.061000000     7.326000000
H    -1.258000000    -2.011000000     6.245000000
