215
-1461.39481
C    -3.295000000     3.383000000     0.668000000
H    -3.936000000     2.554000000     0.378000000
C    -2.317000000     3.887000000    -0.162000000
C    -1.559000000     4.998000000     0.331000000
H    -0.717000000     5.310000000    -0.282000000
C    -2.050000000     3.193000000    -1.484000000
O    -3.281000000     2.838000000    -2.146000000
H    -1.526000000     2.250000000    -1.271000000
O    -1.236000000     4.010000000    -2.395000000
C    -0.188000000     3.381000000    -2.897000000
C     1.004000000     3.492000000    -2.262000000
H     1.136000000     4.008000000    -1.314000000
C     2.123000000     2.868000000    -2.790000000
O     3.280000000     3.041000000    -2.093000000
C     1.958000000     2.014000000    -3.907000000
C     3.171000000     1.280000000    -4.450000000
H     3.160000000     1.227000000    -5.541000000
C     3.332000000    -0.028000000    -3.653000000
C     2.672000000    -1.157000000    -4.014000000
H     2.185000000    -1.131000000    -4.985000000
H     4.080000000     1.869000000    -4.310000000
C     0.713000000     1.901000000    -4.475000000
H     0.586000000     1.278000000    -5.357000000
C    -0.375000000     2.564000000    -3.969000000
C    -1.713000000     2.389000000    -4.660000000
H    -1.550000000     2.093000000    -5.698000000
H    -2.194000000     3.370000000    -4.648000000
C    -2.595000000     1.366000000    -3.888000000
C    -2.580000000     0.056000000    -4.465000000
H    -1.888000000    -0.293000000    -5.227000000
C    -3.418000000     1.617000000    -2.811000000
C    -4.057000000     0.599000000    -2.112000000
H    -4.537000000     0.810000000    -1.160000000
C    -3.929000000    -0.706000000    -2.562000000
O    -4.556000000    -1.716000000    -1.916000000
C    -3.776000000    -2.448000000    -0.922000000
C    -4.628000000    -2.599000000     0.405000000
C    -4.118000000    -3.532000000     1.397000000
H    -3.388000000    -4.251000000     1.037000000
C    -5.588000000    -1.671000000     0.724000000
H    -6.050000000    -0.927000000     0.080000000
O    -3.344000000    -3.736000000    -1.450000000
H    -2.868000000    -1.856000000    -0.738000000
C    -3.230000000    -0.930000000    -3.747000000
C    -2.958000000    -2.390000000    -4.131000000
H    -2.682000000    -2.420000000    -5.188000000
H    -3.822000000    -3.050000000    -4.025000000
C    -1.881000000    -3.042000000    -3.280000000
C    -0.613000000    -2.986000000    -3.756000000
H    -0.343000000    -2.470000000    -4.674000000
C    -2.190000000    -3.746000000    -2.080000000
C    -1.047000000    -4.361000000    -1.458000000
H    -1.230000000    -4.879000000    -0.519000000
C     0.280000000    -4.267000000    -1.909000000
O     1.312000000    -4.615000000    -1.065000000
C     2.076000000    -3.539000000    -0.450000000
C     2.415000000    -3.776000000     1.021000000
C     1.354000000    -4.130000000     1.884000000
H     0.368000000    -4.348000000     1.480000000
C     3.682000000    -3.544000000     1.566000000
H     4.534000000    -3.216000000     0.976000000
O     3.249000000    -3.408000000    -1.231000000
H     1.490000000    -2.609000000    -0.425000000
C     0.498000000    -3.543000000    -3.107000000
C     1.887000000    -3.549000000    -3.762000000
H     1.782000000    -3.587000000    -4.848000000
H     2.457000000    -4.452000000    -3.536000000
C     2.786000000    -2.354000000    -3.313000000
C     3.367000000    -2.275000000    -2.062000000
C     4.045000000    -1.160000000    -1.568000000
H     4.459000000    -1.072000000    -0.567000000
C     4.066000000    -0.066000000    -2.427000000
O     4.670000000     1.076000000    -1.966000000
C     3.680000000     1.909000000    -1.224000000
H     2.848000000     1.236000000    -0.969000000
C     4.267000000     2.404000000     0.071000000
C     3.668000000     3.436000000     0.725000000
H     2.837000000     3.990000000     0.296000000
C     5.115000000     1.553000000     0.794000000
H     5.439000000     0.585000000     0.420000000
C     5.486000000     1.929000000     2.107000000
O     6.405000000     1.176000000     2.864000000
C     4.966000000     3.133000000     2.670000000
H     5.274000000     3.463000000     3.659000000
C     4.040000000     3.898000000     1.952000000
O     3.596000000     5.015000000     2.627000000
C     2.680000000     5.920000000     2.094000000
C     1.296000000     5.764000000     2.275000000
H     0.854000000     4.920000000     2.799000000
C     3.126000000     7.017000000     1.310000000
H     4.179000000     7.163000000     1.081000000
C     2.230000000     7.835000000     0.684000000
H     2.635000000     8.698000000     0.162000000
C     0.860000000     7.729000000     0.858000000
H     0.158000000     8.448000000     0.443000000
C     0.405000000     6.674000000     1.747000000
O    -0.936000000     6.566000000     2.044000000
C    -1.795000000     5.581000000     1.559000000
C    -2.862000000     5.114000000     2.327000000
H    -3.074000000     5.404000000     3.353000000
C    -3.576000000     4.007000000     1.891000000
O    -4.596000000     3.553000000     2.724000000
C    -5.727000000     2.756000000     2.317000000
C    -5.814000000     1.371000000     2.573000000
H    -5.008000000     0.919000000     3.145000000
C    -6.785000000     3.336000000     1.653000000
H    -6.812000000     4.414000000     1.515000000
C    -7.893000000     2.578000000     1.245000000
H    -8.731000000     3.079000000     0.767000000
C    -7.994000000     1.218000000     1.495000000
H    -8.822000000     0.612000000     1.137000000
C    -6.909000000     0.588000000     2.148000000
O    -6.971000000    -0.760000000     2.425000000
C    -6.008000000    -1.669000000     2.057000000
C    -5.606000000    -2.612000000     2.984000000
H    -6.048000000    -2.529000000     3.973000000
C    -4.577000000    -3.448000000     2.714000000
O    -4.203000000    -4.402000000     3.648000000
C    -3.002000000    -5.056000000     3.415000000
C    -1.847000000    -4.569000000     3.881000000
H    -1.816000000    -3.713000000     4.550000000
C    -2.976000000    -6.201000000     2.658000000
H    -3.849000000    -6.710000000     2.257000000
C    -1.767000000    -6.801000000     2.304000000
H    -1.798000000    -7.734000000     1.746000000
C    -0.603000000    -6.285000000     2.795000000
H     0.366000000    -6.767000000     2.695000000
C    -0.621000000    -5.209000000     3.636000000
O     0.551000000    -4.650000000     4.082000000
C     1.561000000    -4.167000000     3.263000000
C     2.834000000    -3.933000000     3.886000000
H     3.068000000    -3.800000000     4.939000000
C     3.894000000    -3.632000000     2.956000000
O     5.168000000    -3.376000000     3.509000000
C     6.094000000    -2.434000000     3.131000000
C     7.370000000    -2.907000000     2.804000000
H     7.524000000    -3.982000000     2.757000000
C     8.345000000    -1.889000000     2.579000000
H     9.381000000    -2.201000000     2.472000000
C     8.026000000    -0.537000000     2.511000000
H     8.808000000     0.196000000     2.330000000
C     6.662000000    -0.133000000     2.714000000
C     5.705000000    -1.095000000     2.990000000
H     4.660000000    -0.824000000     3.109000000
C    -1.674000000    -0.241000000     2.093000000
H    -2.229000000    -0.720000000     2.895000000
C    -1.127000000    -1.078000000     1.093000000
H    -1.368000000    -2.129000000     0.956000000
C    -0.296000000    -0.443000000     0.100000000
H     0.127000000    -1.007000000    -0.828000000
C    -0.077000000     0.881000000     0.128000000
H     0.559000000     1.380000000    -0.599000000
C    -0.510000000     1.692000000     1.139000000
H    -0.271000000     2.752000000     1.132000000
C    -1.299000000     1.177000000     2.163000000
C    -1.707000000     1.909000000     3.410000000
O    -1.086000000     2.937000000     3.631000000
O    -2.529000000     1.435000000     4.211000000
O    -0.572000000     5.287000000     5.353000000
H    -0.822000000     4.755000000     4.598000000
H    -0.851000000     4.773000000     6.111000000
O    -3.592000000     8.566000000     3.119000000
H    -4.347000000     8.203000000     3.582000000
H    -2.837000000     8.133000000     3.515000000
O    -3.519000000     1.863000000     8.225000000
H    -4.278000000     2.440000000     8.139000000
H    -3.784000000     1.053000000     7.788000000
O    -4.196000000     0.185000000     6.208000000
H    -3.474000000     0.464000000     5.645000000
H    -4.983000000     0.502000000     5.764000000
O     1.554000000    -1.385000000     4.830000000
H     1.885000000    -0.758000000     4.188000000
H     0.609000000    -1.229000000     4.852000000
O    -4.371000000     3.087000000     5.412000000
H    -3.624000000     2.511000000     5.248000000
H    -4.610000000     3.421000000     4.548000000
O     2.122000000     0.951000000     7.253000000
H     2.791000000     0.931000000     6.568000000
H     1.377000000     0.484000000     6.874000000
O    -1.165000000    -1.102000000     5.611000000
H    -1.435000000    -0.314000000     5.140000000
H    -1.866000000    -1.255000000     6.244000000
O    -6.736000000     1.430000000     6.283000000
H    -6.816000000     2.244000000     5.787000000
H    -6.567000000     1.712000000     7.182000000
O     4.072000000     0.871000000     5.266000000
H     4.832000000     1.227000000     4.805000000
H     3.383000000     0.839000000     4.602000000
O    -7.469000000     3.874000000     4.675000000
H    -7.848000000     4.507000000     4.065000000
H    -7.224000000     4.396000000     5.439000000
O     2.086000000     3.457000000     4.666000000
H     2.734000000     3.729000000     4.017000000
H     2.455000000     3.735000000     5.505000000
O     1.357000000     7.283000000     5.616000000
H     0.593000000     6.761000000     5.373000000
H     1.629000000     6.930000000     6.463000000
O     1.833000000     0.816000000     3.306000000
H     1.679000000     0.476000000     2.424000000
H     1.441000000     1.689000000     3.298000000
O    -1.307000000     3.563000000     7.943000000
H    -2.153000000     3.118000000     7.904000000
H    -0.725000000     3.017000000     7.413000000
O    -3.987000000     5.883000000     6.197000000
H    -3.774000000     4.979000000     5.966000000
H    -4.905000000     5.852000000     6.468000000
O    -0.113000000     2.289000000     5.873000000
H    -0.637000000     2.429000000     5.084000000
H     0.679000000     2.807000000     5.729000000
O    -3.502000000    -2.238000000     7.655000000
H    -4.123000000    -2.895000000     7.342000000
H    -3.920000000    -1.400000000     7.458000000
O     0.940000000    -2.523000000     7.303000000
H     0.036000000    -2.468000000     6.992000000
H     1.436000000    -1.978000000     6.693000000
