215
-1463.56331
C    -2.707000000    -1.591000000    -4.328000000
H    -1.866000000    -2.280000000    -4.328000000
C    -2.469000000    -0.218000000    -4.284000000
C    -3.537000000     0.679000000    -4.097000000
H    -3.312000000     1.736000000    -3.984000000
C    -1.073000000     0.339000000    -4.198000000
O    -0.171000000    -0.433000000    -5.093000000
H    -0.754000000     0.322000000    -3.145000000
O    -0.938000000     1.762000000    -4.627000000
C    -0.059000000     2.558000000    -3.882000000
C    -0.655000000     3.321000000    -2.938000000
H    -1.734000000     3.444000000    -2.893000000
C     0.077000000     4.060000000    -1.988000000
O    -0.575000000     4.635000000    -0.840000000
C     1.465000000     3.984000000    -2.034000000
C     2.343000000     4.773000000    -1.083000000
H     3.261000000     5.111000000    -1.568000000
C     2.573000000     4.042000000     0.207000000
C     3.719000000     3.274000000     0.336000000
H     4.379000000     3.180000000    -0.523000000
H     1.872000000     5.718000000    -0.804000000
C     2.078000000     3.144000000    -2.892000000
H     3.163000000     3.200000000    -2.880000000
C     1.348000000     2.428000000    -3.865000000
C     2.071000000     1.664000000    -5.023000000
H     3.029000000     2.084000000    -5.336000000
H     1.412000000     1.756000000    -5.889000000
C     2.133000000     0.204000000    -4.537000000
C     3.321000000    -0.176000000    -3.832000000
H     4.069000000     0.576000000    -3.594000000
C     1.109000000    -0.739000000    -4.667000000
C     1.242000000    -1.999000000    -4.108000000
H     0.471000000    -2.761000000    -4.200000000
C     2.360000000    -2.329000000    -3.414000000
O     2.462000000    -3.579000000    -2.736000000
C     2.074000000    -3.379000000    -1.366000000
C     1.157000000    -4.488000000    -0.867000000
C     1.075000000    -4.831000000     0.483000000
H     1.717000000    -4.328000000     1.201000000
C     0.280000000    -5.088000000    -1.738000000
H     0.354000000    -4.834000000    -2.793000000
O     3.231000000    -3.465000000    -0.570000000
H     1.497000000    -2.453000000    -1.228000000
C     3.417000000    -1.412000000    -3.249000000
C     4.627000000    -1.673000000    -2.311000000
H     5.485000000    -1.116000000    -2.693000000
H     4.890000000    -2.731000000    -2.372000000
C     4.497000000    -1.326000000    -0.873000000
C     4.779000000    -0.069000000    -0.387000000
H     5.206000000     0.723000000    -0.997000000
C     3.772000000    -2.225000000    -0.020000000
C     3.557000000    -1.953000000     1.305000000
H     2.954000000    -2.629000000     1.905000000
C     4.059000000    -0.771000000     1.802000000
O     3.762000000    -0.447000000     3.128000000
C     2.666000000     0.442000000     3.326000000
C     1.770000000    -0.137000000     4.396000000
C     1.703000000    -1.498000000     4.704000000
H     2.387000000    -2.166000000     4.187000000
C     0.987000000     0.738000000     5.155000000
H     1.123000000     1.812000000     5.055000000
O     3.076000000     1.801000000     3.612000000
H     1.926000000     0.461000000     2.511000000
C     4.603000000     0.232000000     0.942000000
C     5.120000000     1.553000000     1.512000000
H     5.932000000     1.973000000     0.915000000
H     5.519000000     1.323000000     2.502000000
C     3.944000000     2.537000000     1.501000000
C     3.014000000     2.643000000     2.537000000
C     1.965000000     3.546000000     2.428000000
H     1.189000000     3.441000000     3.181000000
C     1.691000000     4.136000000     1.241000000
O     0.613000000     4.917000000     1.061000000
C    -0.432000000     4.119000000     0.479000000
H    -0.064000000     3.099000000     0.294000000
C    -1.783000000     4.135000000     1.252000000
C    -2.930000000     3.707000000     0.621000000
H    -2.855000000     3.341000000    -0.399000000
C    -1.858000000     4.455000000     2.638000000
H    -0.948000000     4.556000000     3.223000000
C    -3.087000000     4.354000000     3.265000000
O    -3.188000000     4.550000000     4.633000000
C    -4.241000000     3.964000000     2.586000000
H    -5.156000000     3.736000000     3.128000000
C    -4.201000000     3.689000000     1.255000000
O    -5.283000000     3.181000000     0.581000000
C    -5.438000000     3.208000000    -0.748000000
C    -5.602000000     1.992000000    -1.455000000
H    -5.400000000     1.053000000    -0.946000000
C    -5.390000000     4.416000000    -1.448000000
H    -5.328000000     5.255000000    -0.761000000
C    -5.535000000     4.490000000    -2.808000000
H    -5.395000000     5.434000000    -3.329000000
C    -5.697000000     3.323000000    -3.518000000
H    -5.805000000     3.444000000    -4.592000000
C    -5.698000000     2.039000000    -2.859000000
O    -5.882000000     0.892000000    -3.620000000
C    -4.818000000     0.144000000    -3.972000000
C    -5.071000000    -1.189000000    -4.319000000
H    -6.098000000    -1.469000000    -4.098000000
C    -4.026000000    -2.054000000    -4.404000000
O    -4.311000000    -3.434000000    -4.486000000
C    -3.333000000    -4.372000000    -4.516000000
C    -2.949000000    -4.969000000    -3.349000000
H    -3.530000000    -4.836000000    -2.440000000
C    -2.736000000    -4.699000000    -5.779000000
H    -3.246000000    -4.216000000    -6.609000000
C    -1.770000000    -5.657000000    -5.801000000
H    -1.225000000    -5.841000000    -6.723000000
C    -1.416000000    -6.345000000    -4.624000000
H    -0.670000000    -7.125000000    -4.754000000
C    -1.999000000    -5.974000000    -3.406000000
O    -1.582000000    -6.534000000    -2.250000000
C    -0.661000000    -5.996000000    -1.349000000
C    -0.697000000    -6.365000000     0.008000000
H    -1.555000000    -6.974000000     0.278000000
C     0.074000000    -5.704000000     0.935000000
O    -0.133000000    -6.028000000     2.278000000
C     0.764000000    -5.578000000     3.249000000
C     0.284000000    -4.831000000     4.293000000
H    -0.760000000    -4.563000000     4.150000000
C     2.094000000    -5.947000000     3.169000000
H     2.415000000    -6.607000000     2.367000000
C     2.912000000    -5.442000000     4.139000000
H     3.970000000    -5.665000000     4.024000000
C     2.489000000    -4.665000000     5.195000000
H     3.294000000    -4.271000000     5.809000000
C     1.142000000    -4.271000000     5.262000000
O     0.778000000    -3.304000000     6.064000000
C     0.827000000    -1.983000000     5.716000000
C    -0.036000000    -1.089000000     6.363000000
H    -0.709000000    -1.372000000     7.169000000
C     0.109000000     0.260000000     6.049000000
O    -0.603000000     1.214000000     6.813000000
C    -0.840000000     2.515000000     6.577000000
C    -0.371000000     3.509000000     7.454000000
H     0.310000000     3.211000000     8.247000000
C    -0.785000000     4.861000000     7.328000000
H    -0.383000000     5.640000000     7.971000000
C    -1.611000000     5.143000000     6.287000000
H    -1.956000000     6.165000000     6.156000000
C    -2.222000000     4.178000000     5.501000000
C    -1.757000000     2.838000000     5.593000000
H    -2.175000000     2.073000000     4.943000000
C    -0.530000000    -0.917000000     1.545000000
H    -0.260000000    -1.543000000     2.392000000
C     0.262000000    -0.407000000     0.601000000
H     1.342000000    -0.320000000     0.690000000
C    -0.286000000     0.364000000    -0.462000000
H     0.445000000     0.810000000    -1.193000000
C    -1.624000000     0.637000000    -0.487000000
H    -2.002000000     1.293000000    -1.267000000
C    -2.478000000     0.088000000     0.457000000
H    -3.523000000     0.386000000     0.473000000
C    -1.915000000    -0.647000000     1.507000000
C    -2.867000000    -1.132000000     2.604000000
O    -4.066000000    -0.779000000     2.624000000
O    -2.382000000    -1.874000000     3.477000000
O    -7.714000000     1.598000000     2.313000000
H    -6.833000000     1.387000000     2.621000000
H    -8.215000000     0.795000000     2.452000000
O    -3.537000000    -4.364000000     3.498000000
H    -4.469000000    -4.189000000     3.621000000
H    -3.147000000    -3.501000000     3.355000000
O    -6.194000000    -1.459000000     0.939000000
H    -6.987000000    -1.197000000     1.407000000
H    -5.481000000    -1.044000000     1.424000000
O    -5.402000000    -5.788000000     6.219000000
H    -5.492000000    -5.760000000     5.267000000
H    -6.267000000    -6.050000000     6.534000000
O    -8.329000000    -2.182000000     2.889000000
H    -7.601000000    -2.804000000     2.880000000
H    -8.836000000    -2.395000000     2.105000000
O    -6.801000000    -3.956000000     0.085000000
H    -6.644000000    -3.051000000     0.354000000
H    -6.829000000    -3.921000000    -0.871000000
O    -2.903000000    -2.879000000     8.375000000
H    -2.899000000    -2.732000000     7.429000000
H    -2.247000000    -3.561000000     8.515000000
O    -3.332000000    -7.003000000     3.642000000
H    -3.360000000    -6.046000000     3.624000000
H    -4.232000000    -7.272000000     3.463000000
O    -5.877000000    -1.052000000     6.327000000
H    -5.888000000    -1.887000000     6.794000000
H    -5.206000000    -0.536000000     6.774000000
O    -5.413000000     0.753000000     4.108000000
H    -4.855000000     0.182000000     3.580000000
H    -5.496000000     0.298000000     4.946000000
O    -4.037000000    -1.027000000     9.728000000
H    -3.551000000    -1.571000000     9.109000000
H    -3.517000000    -1.056000000    10.531000000
O    -5.618000000    -3.399000000     7.788000000
H    -5.516000000    -4.078000000     7.121000000
H    -4.746000000    -3.304000000     8.169000000
O    -8.306000000    -0.251000000     5.160000000
H    -8.168000000    -1.090000000     4.721000000
H    -7.687000000    -0.257000000     5.890000000
O    -5.641000000    -2.720000000     3.969000000
H    -4.895000000    -2.339000000     3.507000000
H    -5.858000000    -2.076000000     4.644000000
O    -3.211000000     0.308000000     6.745000000
H    -3.124000000     0.104000000     5.814000000
H    -2.352000000     0.644000000     6.998000000
O    -7.692000000    -5.790000000     1.854000000
H    -6.791000000    -5.744000000     2.175000000
H    -7.757000000    -5.076000000     1.220000000
O    -6.138000000     2.812000000     5.919000000
H    -5.767000000     2.115000000     5.378000000
H    -6.663000000     3.332000000     5.311000000
O    -2.796000000    -2.815000000     5.813000000
H    -2.924000000    -3.710000000     5.500000000
H    -2.533000000    -2.325000000     5.034000000
O    -4.222000000    -5.820000000     0.210000000
H    -4.009000000    -5.613000000     1.120000000
H    -5.056000000    -5.378000000     0.053000000
