215
-1468.43225
C    -5.176000000     2.372000000     0.239000000
H    -5.872000000     1.764000000    -0.333000000
C    -3.913000000     2.884000000    -0.278000000
C    -3.180000000     3.689000000     0.492000000
H    -2.319000000     4.164000000     0.029000000
C    -3.280000000     2.422000000    -1.615000000
O    -4.248000000     1.598000000    -2.324000000
H    -2.365000000     1.830000000    -1.468000000
O    -2.955000000     3.594000000    -2.353000000
C    -1.711000000     3.342000000    -2.954000000
C    -0.574000000     3.971000000    -2.359000000
H    -0.732000000     4.677000000    -1.548000000
C     0.700000000     3.515000000    -2.660000000
O     1.715000000     3.937000000    -1.839000000
C     0.854000000     2.533000000    -3.722000000
C     2.254000000     2.262000000    -4.259000000
H     2.137000000     2.062000000    -5.326000000
C     2.903000000     1.121000000    -3.609000000
C     2.683000000    -0.192000000    -4.139000000
H     1.965000000    -0.334000000    -4.942000000
H     2.829000000     3.184000000    -4.160000000
C    -0.289000000     2.056000000    -4.425000000
H    -0.266000000     1.255000000    -5.158000000
C    -1.577000000     2.397000000    -3.993000000
C    -2.705000000     1.664000000    -4.735000000
H    -2.420000000     1.430000000    -5.762000000
H    -3.614000000     2.265000000    -4.797000000
C    -3.005000000     0.361000000    -3.977000000
C    -2.498000000    -0.905000000    -4.441000000
H    -1.815000000    -0.860000000    -5.285000000
C    -3.785000000     0.424000000    -2.845000000
C    -4.013000000    -0.731000000    -2.052000000
H    -4.622000000    -0.629000000    -1.157000000
C    -3.471000000    -1.931000000    -2.430000000
O    -3.622000000    -2.999000000    -1.568000000
C    -2.461000000    -3.236000000    -0.732000000
C    -2.808000000    -3.463000000     0.676000000
C    -2.105000000    -4.378000000     1.476000000
H    -1.257000000    -4.948000000     1.107000000
C    -3.873000000    -2.811000000     1.253000000
H    -4.400000000    -2.060000000     0.670000000
O    -1.793000000    -4.367000000    -1.225000000
H    -1.878000000    -2.305000000    -0.681000000
C    -2.730000000    -2.064000000    -3.614000000
C    -2.070000000    -3.354000000    -3.938000000
H    -1.910000000    -3.416000000    -5.016000000
H    -2.755000000    -4.135000000    -3.599000000
C    -0.748000000    -3.556000000    -3.275000000
C     0.417000000    -3.148000000    -3.907000000
H     0.367000000    -2.777000000    -4.928000000
C    -0.671000000    -4.167000000    -2.002000000
C     0.564000000    -4.255000000    -1.319000000
H     0.628000000    -4.748000000    -0.352000000
C     1.726000000    -3.743000000    -1.979000000
O     2.981000000    -3.930000000    -1.305000000
C     3.479000000    -2.712000000    -0.655000000
C     4.087000000    -2.915000000     0.720000000
C     3.459000000    -3.760000000     1.580000000
H     2.611000000    -4.328000000     1.206000000
C     5.177000000    -2.143000000     1.166000000
H     5.659000000    -1.521000000     0.415000000
O     4.401000000    -2.023000000    -1.506000000
H     2.652000000    -2.037000000    -0.391000000
C     1.692000000    -3.163000000    -3.217000000
C     2.887000000    -2.667000000    -3.920000000
H     2.638000000    -2.445000000    -4.960000000
H     3.702000000    -3.393000000    -3.925000000
C     3.184000000    -1.246000000    -3.438000000
C     4.012000000    -1.042000000    -2.360000000
C     4.327000000     0.244000000    -1.868000000
H     4.971000000     0.485000000    -1.027000000
C     3.643000000     1.295000000    -2.411000000
O     3.675000000     2.557000000    -1.800000000
C     2.489000000     2.963000000    -1.070000000
H     1.841000000     2.113000000    -0.807000000
C     2.865000000     3.648000000     0.186000000
C     2.081000000     4.730000000     0.669000000
H     1.247000000     5.078000000     0.065000000
C     3.830000000     3.143000000     1.028000000
H     4.246000000     2.205000000     0.669000000
C     4.171000000     3.796000000     2.264000000
O     5.138000000     3.240000000     3.052000000
C     3.402000000     4.822000000     2.701000000
H     3.727000000     5.162000000     3.681000000
C     2.401000000     5.351000000     1.875000000
O     1.671000000     6.464000000     2.252000000
C     0.324000000     6.527000000     2.029000000
C    -0.537000000     5.545000000     2.541000000
H    -0.216000000     4.738000000     3.196000000
C    -0.175000000     7.618000000     1.304000000
H     0.553000000     8.192000000     0.735000000
C    -1.546000000     7.778000000     1.133000000
H    -1.993000000     8.508000000     0.464000000
C    -2.332000000     6.656000000     1.493000000
H    -3.400000000     6.633000000     1.291000000
C    -1.911000000     5.566000000     2.198000000
O    -2.774000000     4.605000000     2.688000000
C    -3.550000000     3.913000000     1.828000000
C    -4.814000000     3.491000000     2.331000000
H    -5.036000000     3.620000000     3.387000000
C    -5.593000000     2.699000000     1.510000000
O    -6.713000000     2.073000000     2.090000000
C    -6.938000000     0.695000000     2.077000000
C    -5.878000000    -0.158000000     2.374000000
H    -4.856000000     0.203000000     2.462000000
C    -8.287000000     0.243000000     2.102000000
H    -9.090000000     0.938000000     1.872000000
C    -8.578000000    -1.085000000     2.435000000
H    -9.582000000    -1.501000000     2.449000000
C    -7.494000000    -1.910000000     2.714000000
H    -7.654000000    -2.958000000     2.957000000
C    -6.167000000    -1.479000000     2.709000000
O    -5.247000000    -2.376000000     3.165000000
C    -4.100000000    -2.857000000     2.627000000
C    -3.365000000    -3.660000000     3.418000000
H    -3.598000000    -3.743000000     4.477000000
C    -2.359000000    -4.474000000     2.853000000
O    -1.559000000    -5.208000000     3.690000000
C    -0.310000000    -5.725000000     3.337000000
C     0.796000000    -5.025000000     3.741000000
H     0.751000000    -4.145000000     4.378000000
C    -0.277000000    -6.821000000     2.499000000
H    -1.239000000    -7.185000000     2.147000000
C     1.034000000    -7.229000000     2.163000000
H     1.224000000    -8.070000000     1.500000000
C     2.194000000    -6.609000000     2.617000000
H     3.171000000    -6.960000000     2.296000000
C     2.043000000    -5.482000000     3.369000000
O     3.083000000    -4.673000000     3.732000000
C     3.825000000    -3.857000000     2.906000000
C     4.890000000    -3.092000000     3.356000000
H     5.145000000    -3.102000000     4.413000000
C     5.499000000    -2.214000000     2.518000000
O     6.565000000    -1.408000000     2.954000000
C     6.750000000    -0.066000000     2.663000000
C     7.878000000     0.315000000     1.991000000
H     8.590000000    -0.376000000     1.548000000
C     8.104000000     1.666000000     1.654000000
H     8.980000000     1.908000000     1.057000000
C     7.173000000     2.614000000     1.942000000
H     7.299000000     3.602000000     1.508000000
C     6.038000000     2.265000000     2.668000000
C     5.827000000     0.924000000     3.139000000
H     4.897000000     0.611000000     3.605000000
C    -0.245000000    -1.419000000     2.392000000
H     0.067000000    -2.350000000     2.859000000
C     0.066000000    -1.194000000     1.050000000
H     0.500000000    -2.016000000     0.486000000
C    -0.304000000     0.032000000     0.469000000
H    -0.112000000     0.185000000    -0.631000000
C    -0.772000000     1.070000000     1.271000000
H    -0.899000000     2.091000000     0.918000000
C    -1.123000000     0.818000000     2.591000000
H    -1.432000000     1.666000000     3.197000000
C    -0.813000000    -0.384000000     3.185000000
C    -1.121000000    -0.587000000     4.636000000
O    -1.807000000     0.191000000     5.283000000
O    -0.271000000    -1.264000000     5.233000000
O     0.342000000    -0.062000000     7.671000000
H     0.292000000    -0.652000000     6.920000000
H    -0.171000000     0.703000000     7.410000000
O     1.475000000    -3.080000000     6.885000000
H     1.320000000    -2.507000000     6.134000000
H     1.979000000    -3.812000000     6.528000000
O    -3.470000000     3.220000000     6.989000000
H    -3.232000000     4.147000000     6.957000000
H    -4.358000000     3.213000000     7.348000000
O     2.404000000    -0.796000000     4.565000000
H     2.572000000    -0.108000000     3.921000000
H     1.450000000    -0.832000000     4.634000000
O    -2.236000000    -5.769000000     6.381000000
H    -1.511000000    -5.592000000     6.981000000
H    -2.008000000    -5.291000000     5.584000000
O    -1.416000000    -2.374000000     7.418000000
H    -1.247000000    -1.987000000     6.560000000
H    -0.872000000    -1.866000000     8.021000000
O     4.775000000    -0.565000000     6.183000000
H     3.966000000    -0.679000000     5.684000000
H     4.481000000    -0.370000000     7.073000000
O     2.239000000     0.842000000     2.441000000
H     1.355000000     0.523000000     2.260000000
H     2.107000000     1.625000000     2.976000000
O    -4.399000000     0.920000000     5.510000000
H    -4.043000000     1.789000000     5.694000000
H    -3.638000000     0.340000000     5.531000000
O     1.355000000     2.945000000     4.546000000
H     0.641000000     2.845000000     5.176000000
H     1.908000000     3.632000000     4.919000000
O     1.705000000    -2.212000000     9.565000000
H     1.748000000    -2.453000000     8.640000000
H     0.989000000    -2.740000000     9.917000000
O    -4.096000000    -0.430000000     8.321000000
H    -4.368000000    -1.207000000     7.833000000
H    -4.492000000     0.301000000     7.847000000
O    -6.403000000    -0.741000000     6.115000000
H    -6.234000000    -1.668000000     5.948000000
H    -5.646000000    -0.289000000     5.745000000
O    -2.760000000    -2.722000000    10.046000000
H    -3.017000000    -3.583000000     9.718000000
H    -2.492000000    -2.238000000     9.265000000
O    -0.651000000     2.493000000     6.323000000
H    -0.906000000     1.646000000     5.957000000
H    -1.463000000     2.999000000     6.347000000
O     1.933000000     3.048000000     7.615000000
H     0.977000000     3.007000000     7.637000000
H     2.126000000     3.874000000     7.170000000
O    -4.006000000    -2.738000000     6.780000000
H    -4.292000000    -3.529000000     7.237000000
H    -3.051000000    -2.791000000     6.784000000
O    -2.118000000     1.273000000     8.954000000
H    -2.428000000     1.913000000     8.314000000
H    -2.532000000     0.451000000     8.692000000
O    -0.246000000    -5.102000000     7.897000000
H    -0.016000000    -5.197000000     8.821000000
H     0.183000000    -4.291000000     7.625000000
