215
-1455.19033
C    -3.747000000     3.051000000     0.519000000
H    -4.169000000     2.055000000     0.412000000
C    -2.799000000     3.503000000    -0.400000000
C    -2.145000000     4.719000000    -0.047000000
H    -1.404000000     5.163000000    -0.707000000
C    -2.379000000     2.712000000    -1.610000000
O    -3.527000000     2.121000000    -2.267000000
H    -1.762000000     1.832000000    -1.372000000
O    -1.739000000     3.594000000    -2.551000000
C    -0.727000000     3.047000000    -3.298000000
C     0.527000000     3.319000000    -2.652000000
H     0.560000000     4.063000000    -1.861000000
C     1.660000000     2.726000000    -3.172000000
O     2.843000000     3.021000000    -2.639000000
C     1.657000000     1.764000000    -4.226000000
C     2.963000000     1.141000000    -4.736000000
H     2.852000000     0.754000000    -5.751000000
C     3.211000000    -0.111000000    -3.879000000
C     2.550000000    -1.322000000    -4.147000000
H     1.736000000    -1.407000000    -4.863000000
H     3.801000000     1.841000000    -4.768000000
C     0.388000000     1.414000000    -4.819000000
H     0.279000000     0.565000000    -5.489000000
C    -0.755000000     2.082000000    -4.338000000
C    -2.116000000     1.503000000    -4.768000000
H    -1.999000000     1.106000000    -5.778000000
H    -2.779000000     2.362000000    -4.887000000
C    -2.851000000     0.436000000    -3.855000000
C    -2.678000000    -0.889000000    -4.191000000
H    -2.232000000    -1.251000000    -5.114000000
C    -3.547000000     0.780000000    -2.672000000
C    -4.200000000    -0.196000000    -1.900000000
H    -4.731000000     0.056000000    -0.986000000
C    -3.971000000    -1.516000000    -2.246000000
O    -4.389000000    -2.453000000    -1.393000000
C    -3.521000000    -2.983000000    -0.345000000
C    -4.173000000    -3.137000000     1.026000000
C    -3.624000000    -4.000000000     1.967000000
H    -2.783000000    -4.659000000     1.765000000
C    -5.236000000    -2.261000000     1.351000000
H    -5.651000000    -1.505000000     0.689000000
O    -2.929000000    -4.258000000    -0.844000000
H    -2.677000000    -2.279000000    -0.290000000
C    -3.268000000    -1.907000000    -3.408000000
C    -2.974000000    -3.382000000    -3.711000000
H    -2.791000000    -3.640000000    -4.756000000
H    -3.888000000    -3.918000000    -3.447000000
C    -1.742000000    -3.875000000    -2.961000000
C    -0.473000000    -3.736000000    -3.561000000
H    -0.462000000    -3.430000000    -4.604000000
C    -1.855000000    -4.189000000    -1.656000000
C    -0.677000000    -4.348000000    -0.888000000
H    -0.681000000    -4.576000000     0.175000000
C     0.551000000    -4.318000000    -1.537000000
O     1.569000000    -4.415000000    -0.666000000
C     2.303000000    -3.212000000    -0.306000000
C     2.627000000    -3.073000000     1.188000000
C     1.665000000    -3.298000000     2.172000000
H     0.680000000    -3.623000000     1.847000000
C     3.931000000    -2.657000000     1.623000000
H     4.718000000    -2.612000000     0.873000000
O     3.446000000    -3.211000000    -1.139000000
H     1.628000000    -2.372000000    -0.531000000
C     0.679000000    -3.887000000    -2.843000000
C     2.021000000    -3.795000000    -3.451000000
H     2.047000000    -3.966000000    -4.529000000
H     2.673000000    -4.612000000    -3.136000000
C     2.707000000    -2.421000000    -3.298000000
C     3.455000000    -2.239000000    -2.116000000
C     4.205000000    -1.040000000    -1.844000000
H     4.719000000    -0.871000000    -0.901000000
C     4.012000000    -0.005000000    -2.717000000
O     4.434000000     1.236000000    -2.232000000
C     3.421000000     2.069000000    -1.661000000
H     2.545000000     1.492000000    -1.330000000
C     3.937000000     2.786000000    -0.441000000
C     3.242000000     3.849000000     0.077000000
H     2.377000000     4.286000000    -0.415000000
C     5.124000000     2.308000000     0.122000000
H     5.669000000     1.417000000    -0.178000000
C     5.567000000     2.903000000     1.315000000
O     6.763000000     2.479000000     1.979000000
C     4.863000000     3.969000000     1.846000000
H     5.264000000     4.355000000     2.779000000
C     3.749000000     4.451000000     1.231000000
O     3.048000000     5.452000000     1.904000000
C     2.008000000     6.183000000     1.340000000
C     0.707000000     5.892000000     1.779000000
H     0.568000000     5.082000000     2.491000000
C     2.343000000     7.169000000     0.478000000
H     3.345000000     7.238000000     0.061000000
C     1.337000000     7.988000000     0.045000000
H     1.474000000     8.831000000    -0.626000000
C     0.017000000     7.653000000     0.286000000
H    -0.780000000     8.199000000    -0.213000000
C    -0.323000000     6.680000000     1.238000000
O    -1.687000000     6.485000000     1.559000000
C    -2.372000000     5.379000000     1.199000000
C    -3.185000000     4.764000000     2.117000000
H    -3.314000000     5.308000000     3.049000000
C    -3.923000000     3.631000000     1.784000000
O    -4.803000000     3.100000000     2.715000000
C    -5.790000000     2.236000000     2.429000000
C    -5.758000000     0.875000000     2.837000000
H    -4.837000000     0.514000000     3.289000000
C    -6.852000000     2.688000000     1.632000000
H    -6.871000000     3.725000000     1.308000000
C    -7.933000000     1.832000000     1.335000000
H    -8.799000000     2.098000000     0.733000000
C    -7.890000000     0.487000000     1.770000000
H    -8.689000000    -0.203000000     1.510000000
C    -6.725000000    -0.046000000     2.398000000
O    -6.773000000    -1.310000000     2.967000000
C    -5.812000000    -2.239000000     2.618000000
C    -5.274000000    -3.072000000     3.555000000
H    -5.698000000    -3.344000000     4.518000000
C    -4.115000000    -3.851000000     3.286000000
O    -3.605000000    -4.568000000     4.325000000
C    -2.285000000    -4.875000000     4.257000000
C    -1.338000000    -3.871000000     4.477000000
H    -1.741000000    -2.889000000     4.708000000
C    -1.960000000    -6.209000000     3.844000000
H    -2.730000000    -6.963000000     3.707000000
C    -0.609000000    -6.529000000     3.694000000
H    -0.356000000    -7.549000000     3.416000000
C     0.379000000    -5.563000000     3.987000000
H     1.435000000    -5.812000000     3.926000000
C     0.042000000    -4.159000000     4.352000000
O     0.974000000    -3.203000000     4.476000000
C     1.924000000    -3.031000000     3.517000000
C     3.133000000    -2.400000000     3.886000000
H     3.208000000    -2.058000000     4.915000000
C     4.176000000    -2.353000000     2.945000000
O     5.460000000    -1.997000000     3.406000000
C     6.374000000    -1.094000000     2.867000000
C     7.621000000    -1.547000000     2.536000000
H     7.803000000    -2.618000000     2.510000000
C     8.635000000    -0.663000000     2.088000000
H     9.628000000    -1.045000000     1.867000000
C     8.352000000     0.666000000     1.896000000
H     9.048000000     1.400000000     1.497000000
C     7.054000000     1.100000000     2.154000000
C     6.076000000     0.273000000     2.626000000
H     5.087000000     0.595000000     2.943000000
C    -1.435000000    -0.883000000     2.046000000
H    -2.140000000    -1.646000000     2.366000000
C    -0.628000000    -1.105000000     0.847000000
H    -0.787000000    -2.038000000     0.312000000
C     0.280000000    -0.149000000     0.495000000
H     0.884000000    -0.478000000    -0.315000000
C     0.423000000     1.024000000     1.199000000
H     0.978000000     1.847000000     0.756000000
C    -0.329000000     1.230000000     2.362000000
H    -0.169000000     2.117000000     2.969000000
C    -1.274000000     0.287000000     2.812000000
C    -1.896000000     0.382000000     4.240000000
O    -1.561000000     1.280000000     4.960000000
O    -2.652000000    -0.501000000     4.652000000
O    -1.080000000     3.928000000     4.553000000
H    -1.069000000     2.972000000     4.587000000
H    -1.871000000     4.176000000     5.033000000
O    -4.590000000    -1.786000000     6.163000000
H    -3.808000000    -1.610000000     5.639000000
H    -5.232000000    -1.146000000     5.857000000
O    -0.534000000     2.686000000     7.127000000
H    -0.894000000     2.088000000     6.473000000
H    -1.233000000     3.321000000     7.283000000
O    -2.483000000    -3.219000000     7.799000000
H    -3.159000000    -2.695000000     7.371000000
H    -2.968000000    -3.888000000     8.282000000
O    -3.789000000     1.970000000     6.809000000
H    -3.168000000     1.359000000     6.412000000
H    -3.507000000     2.832000000     6.500000000
O    -6.554000000     4.733000000     4.271000000
H    -5.899000000     4.099000000     3.979000000
H    -6.614000000     5.363000000     3.553000000
O    -0.346000000     0.569000000     8.957000000
H    -0.205000000     1.320000000     8.380000000
H    -0.501000000    -0.165000000     8.362000000
O    -1.082000000    -1.198000000     6.787000000
H    -1.749000000    -0.885000000     6.176000000
H    -1.436000000    -2.021000000     7.125000000
O    -6.158000000     0.349000000     5.912000000
H    -5.392000000     0.618000000     6.419000000
H    -6.805000000     1.037000000     6.071000000
O     1.643000000     3.145000000     5.327000000
H     0.798000000     3.497000000     5.607000000
H     1.637000000     2.238000000     5.632000000
O     0.715000000     6.133000000     5.351000000
H     0.047000000     5.546000000     4.997000000
H     1.525000000     5.623000000     5.316000000
O     1.375000000    -0.308000000     6.126000000
H     1.646000000    -0.746000000     5.318000000
H     0.446000000    -0.518000000     6.212000000
O    -2.586000000    -1.180000000     9.999000000
H    -2.909000000    -1.789000000    10.662000000
H    -1.635000000    -1.287000000    10.019000000
O    -3.241000000     4.560000000     6.317000000
H    -3.950000000     4.501000000     6.957000000
H    -2.826000000     5.403000000     6.496000000
O     2.786000000     1.590000000     9.098000000
H     2.325000000     1.092000000     8.424000000
H     3.602000000     1.108000000     9.236000000
O     0.154000000     4.207000000     9.411000000
H     0.218000000     3.811000000     8.542000000
H    -0.744000000     4.029000000     9.689000000
O    -5.047000000     1.094000000     9.454000000
H    -4.723000000     1.573000000     8.691000000
H    -4.454000000     0.348000000     9.539000000
O    -6.121000000    -4.085000000     7.516000000
H    -7.054000000    -4.182000000     7.324000000
H    -5.881000000    -3.246000000     7.121000000
O     2.185000000    -2.640000000     7.898000000
H     1.623000000    -3.347000000     7.579000000
H     1.735000000    -1.838000000     7.631000000
