215
-1438.03698
C    -4.255000000     2.619000000     1.291000000
H    -4.808000000     1.761000000     0.917000000
C    -3.585000000     3.337000000     0.365000000
C    -3.003000000     4.520000000     0.803000000
H    -2.364000000     5.120000000     0.160000000
C    -3.176000000     2.761000000    -1.009000000
O    -4.309000000     2.199000000    -1.740000000
H    -2.420000000     1.991000000    -0.792000000
O    -2.524000000     3.835000000    -1.735000000
C    -1.433000000     3.512000000    -2.584000000
C    -0.193000000     3.937000000    -2.202000000
H    -0.171000000     4.588000000    -1.331000000
C     0.922000000     3.533000000    -2.844000000
O     2.208000000     3.885000000    -2.316000000
C     0.800000000     2.673000000    -3.962000000
C     2.059000000     2.146000000    -4.643000000
H     1.835000000     1.996000000    -5.701000000
C     2.609000000     0.935000000    -3.839000000
C     2.221000000    -0.325000000    -4.242000000
H     1.407000000    -0.364000000    -4.961000000
H     2.922000000     2.812000000    -4.700000000
C    -0.437000000     2.248000000    -4.375000000
H    -0.557000000     1.737000000    -5.327000000
C    -1.604000000     2.640000000    -3.699000000
C    -2.936000000     2.098000000    -4.235000000
H    -2.997000000     1.972000000    -5.318000000
H    -3.652000000     2.895000000    -4.020000000
C    -3.348000000     0.890000000    -3.484000000
C    -2.900000000    -0.341000000    -3.962000000
H    -2.176000000    -0.504000000    -4.757000000
C    -4.081000000     0.967000000    -2.298000000
C    -4.317000000    -0.167000000    -1.597000000
H    -4.906000000    -0.109000000    -0.685000000
C    -3.952000000    -1.433000000    -2.064000000
O    -4.155000000    -2.473000000    -1.215000000
C    -2.940000000    -2.927000000    -0.557000000
C    -3.088000000    -3.140000000     0.928000000
C    -2.138000000    -3.871000000     1.628000000
H    -1.333000000    -4.345000000     1.071000000
C    -4.128000000    -2.539000000     1.652000000
H    -4.919000000    -2.045000000     1.093000000
O    -2.381000000    -4.163000000    -1.196000000
H    -2.252000000    -2.078000000    -0.688000000
C    -3.313000000    -1.566000000    -3.270000000
C    -2.858000000    -2.922000000    -3.759000000
H    -2.817000000    -2.803000000    -4.844000000
H    -3.571000000    -3.597000000    -3.282000000
C    -1.416000000    -3.250000000    -3.245000000
C    -0.222000000    -2.902000000    -3.955000000
H    -0.300000000    -2.407000000    -4.920000000
C    -1.328000000    -4.000000000    -2.047000000
C    -0.049000000    -4.398000000    -1.609000000
H     0.168000000    -4.921000000    -0.682000000
C     1.132000000    -4.008000000    -2.286000000
O     2.357000000    -4.196000000    -1.649000000
C     2.891000000    -3.103000000    -0.878000000
C     3.574000000    -3.471000000     0.422000000
C     3.150000000    -4.604000000     1.088000000
H     2.413000000    -5.263000000     0.635000000
C     4.322000000    -2.515000000     1.141000000
H     4.667000000    -1.603000000     0.660000000
O     3.875000000    -2.441000000    -1.639000000
H     2.053000000    -2.410000000    -0.712000000
C     1.045000000    -3.313000000    -3.448000000
C     2.319000000    -2.824000000    -4.121000000
H     2.077000000    -2.676000000    -5.175000000
H     3.096000000    -3.586000000    -4.034000000
C     2.758000000    -1.481000000    -3.601000000
C     3.564000000    -1.339000000    -2.494000000
C     3.918000000    -0.078000000    -2.020000000
H     4.584000000     0.049000000    -1.171000000
C     3.464000000     1.044000000    -2.734000000
O     3.880000000     2.246000000    -2.283000000
C     2.884000000     2.982000000    -1.508000000
H     2.165000000     2.178000000    -1.292000000
C     3.365000000     3.525000000    -0.170000000
C     2.575000000     4.431000000     0.485000000
H     1.614000000     4.681000000     0.043000000
C     4.491000000     2.974000000     0.466000000
H     5.029000000     2.118000000     0.067000000
C     4.796000000     3.270000000     1.776000000
O     5.884000000     2.726000000     2.453000000
C     4.118000000     4.284000000     2.371000000
H     4.512000000     4.673000000     3.306000000
C     2.967000000     4.875000000     1.761000000
O     2.185000000     5.774000000     2.497000000
C     1.046000000     6.362000000     1.986000000
C    -0.199000000     6.023000000     2.525000000
H    -0.275000000     5.282000000     3.317000000
C     1.202000000     7.310000000     0.988000000
H     2.122000000     7.603000000     0.490000000
C     0.055000000     7.958000000     0.582000000
H     0.205000000     8.880000000     0.027000000
C    -1.237000000     7.633000000     1.069000000
H    -2.092000000     8.236000000     0.776000000
C    -1.356000000     6.619000000     1.980000000
O    -2.567000000     6.166000000     2.491000000
C    -3.149000000     5.003000000     2.109000000
C    -3.803000000     4.208000000     2.976000000
H    -4.006000000     4.624000000     3.959000000
C    -4.438000000     3.054000000     2.562000000
O    -5.140000000     2.393000000     3.520000000
C    -5.893000000     1.241000000     3.166000000
C    -5.378000000     0.006000000     3.542000000
H    -4.425000000     0.049000000     4.062000000
C    -7.071000000     1.290000000     2.387000000
H    -7.340000000     2.258000000     1.972000000
C    -7.681000000     0.098000000     1.947000000
H    -8.490000000     0.101000000     1.220000000
C    -7.221000000    -1.087000000     2.515000000
H    -7.761000000    -2.018000000     2.358000000
C    -6.038000000    -1.134000000     3.281000000
O    -5.460000000    -2.326000000     3.669000000
C    -4.343000000    -2.773000000     2.983000000
C    -3.324000000    -3.487000000     3.663000000
H    -3.415000000    -3.548000000     4.745000000
C    -2.276000000    -4.013000000     2.988000000
O    -1.458000000    -4.788000000     3.743000000
C    -0.532000000    -5.653000000     3.270000000
C     0.803000000    -5.423000000     3.426000000
H     1.091000000    -4.448000000     3.809000000
C    -0.902000000    -6.818000000     2.540000000
H    -1.960000000    -6.982000000     2.355000000
C     0.041000000    -7.616000000     1.994000000
H    -0.200000000    -8.521000000     1.443000000
C     1.428000000    -7.443000000     2.281000000
H     2.149000000    -8.155000000     1.888000000
C     1.760000000    -6.337000000     3.046000000
O     3.103000000    -5.932000000     3.117000000
C     3.451000000    -4.791000000     2.424000000
C     4.334000000    -3.968000000     3.039000000
H     4.600000000    -4.214000000     4.064000000
C     4.832000000    -2.870000000     2.409000000
O     5.554000000    -2.023000000     3.168000000
C     6.208000000    -0.900000000     2.605000000
C     7.228000000    -1.160000000     1.627000000
H     7.495000000    -2.193000000     1.421000000
C     7.925000000    -0.092000000     1.092000000
H     8.851000000    -0.245000000     0.544000000
C     7.487000000     1.240000000     1.393000000
H     7.883000000     2.062000000     0.801000000
C     6.316000000     1.476000000     2.195000000
C     5.719000000     0.362000000     2.804000000
H     4.936000000     0.539000000     3.537000000
C    -0.817000000    -0.344000000     2.615000000
H    -1.328000000    -1.109000000     3.194000000
C    -0.550000000    -0.635000000     1.261000000
H    -0.737000000    -1.652000000     0.924000000
C    -0.119000000     0.417000000     0.456000000
H    -0.067000000     0.210000000    -0.596000000
C    -0.015000000     1.749000000     0.992000000
H     0.265000000     2.599000000     0.375000000
C    -0.333000000     2.010000000     2.342000000
H    -0.435000000     3.037000000     2.683000000
C    -0.700000000     0.924000000     3.199000000
C    -1.099000000     1.137000000     4.668000000
O    -0.851000000     2.263000000     5.189000000
O    -1.475000000     0.246000000     5.380000000
O     0.702000000     1.347000000     7.454000000
H     0.285000000     1.619000000     6.637000000
H    -0.026000000     1.092000000     8.021000000
O     0.258000000    -1.576000000     5.766000000
H    -0.377000000    -0.886000000     5.573000000
H    -0.258000000    -2.267000000     6.181000000
O    -2.238000000     5.849000000     6.433000000
H    -2.938000000     6.499000000     6.386000000
H    -2.683000000     5.034000000     6.665000000
O     2.290000000     4.430000000     7.402000000
H     1.486000000     4.750000000     6.993000000
H     2.127000000     3.499000000     7.555000000
O     3.093000000     2.260000000     9.271000000
H     2.676000000     2.137000000    10.124000000
H     2.605000000     1.687000000     8.680000000
O    -5.016000000     3.246000000     6.166000000
H    -5.077000000     2.846000000     5.298000000
H    -5.922000000     3.295000000     6.472000000
O    -1.571000000     0.017000000     8.562000000
H    -1.775000000    -0.110000000     7.635000000
H    -2.425000000     0.107000000     8.984000000
O     2.626000000    -0.839000000     4.860000000
H     1.720000000    -1.097000000     5.028000000
H     2.598000000    -0.407000000     4.006000000
O    -3.647000000    -0.678000000     6.437000000
H    -2.908000000    -0.340000000     5.931000000
H    -4.418000000    -0.288000000     6.025000000
O     0.449000000    -1.746000000     9.177000000
H    -0.332000000    -1.257000000     8.919000000
H     0.251000000    -2.066000000    10.057000000
O     4.886000000    -0.221000000     6.351000000
H     4.102000000    -0.381000000     5.827000000
H     5.590000000    -0.653000000     5.868000000
O     2.653000000     0.724000000     2.395000000
H     2.172000000     0.625000000     1.574000000
H     2.899000000     1.649000000     2.418000000
O    -2.600000000     3.041000000     7.592000000
H    -3.455000000     3.264000000     7.225000000
H    -2.182000000     2.505000000     6.918000000
O     2.255000000     2.688000000     4.761000000
H     2.364000000     2.189000000     5.570000000
H     1.316000000     2.647000000     4.579000000
O     2.712000000    -2.555000000     8.001000000
H     2.540000000    -2.332000000     7.086000000
H     1.933000000    -2.257000000     8.470000000
O    -3.622000000    -2.204000000     8.640000000
H    -4.367000000    -2.328000000     9.228000000
H    -3.946000000    -1.608000000     7.964000000
O     0.213000000     4.950000000     5.832000000
H     0.077000000     4.043000000     5.556000000
H    -0.653000000     5.248000000     6.111000000
O    -0.792000000     2.979000000     9.912000000
H    -1.322000000     2.963000000     9.115000000
H    -0.849000000     2.088000000    10.256000000
O    -1.205000000    -3.061000000     7.593000000
H    -0.654000000    -2.656000000     8.262000000
H    -2.096000000    -2.800000000     7.827000000
