215
-1444.95008
C    -4.296000000     1.665000000     1.391000000
H    -4.418000000     0.642000000     1.042000000
C    -3.697000000     2.528000000     0.459000000
C    -3.305000000     3.789000000     0.856000000
H    -2.811000000     4.497000000     0.196000000
C    -3.401000000     2.127000000    -0.970000000
O    -4.458000000     1.273000000    -1.516000000
H    -2.506000000     1.502000000    -0.838000000
O    -3.062000000     3.152000000    -1.852000000
C    -1.968000000     3.128000000    -2.695000000
C    -0.735000000     3.850000000    -2.423000000
H    -0.700000000     4.512000000    -1.562000000
C     0.448000000     3.604000000    -3.144000000
O     1.633000000     4.155000000    -2.732000000
C     0.419000000     2.659000000    -4.169000000
C     1.788000000     2.231000000    -4.784000000
H     1.703000000     1.853000000    -5.805000000
C     2.482000000     1.112000000    -3.978000000
C     2.258000000    -0.275000000    -4.298000000
H     1.401000000    -0.412000000    -4.953000000
H     2.488000000     3.068000000    -4.836000000
C    -0.775000000     2.005000000    -4.463000000
H    -0.742000000     1.322000000    -5.307000000
C    -1.974000000     2.227000000    -3.818000000
C    -3.179000000     1.331000000    -4.114000000
H    -3.144000000     1.181000000    -5.195000000
H    -4.161000000     1.785000000    -3.967000000
C    -3.276000000     0.114000000    -3.264000000
C    -2.688000000    -1.041000000    -3.821000000
H    -2.118000000    -1.029000000    -4.746000000
C    -3.933000000     0.084000000    -2.075000000
C    -4.059000000    -1.064000000    -1.363000000
H    -4.547000000    -0.938000000    -0.400000000
C    -3.473000000    -2.205000000    -1.859000000
O    -3.518000000    -3.333000000    -1.074000000
C    -2.302000000    -3.764000000    -0.330000000
C    -2.689000000    -4.128000000     1.145000000
C    -1.768000000    -4.792000000     1.934000000
H    -0.878000000    -5.158000000     1.430000000
C    -3.974000000    -3.767000000     1.690000000
H    -4.699000000    -3.387000000     0.975000000
O    -1.584000000    -4.793000000    -1.095000000
H    -1.734000000    -2.831000000    -0.197000000
C    -2.773000000    -2.263000000    -3.124000000
C    -2.188000000    -3.569000000    -3.663000000
H    -2.196000000    -3.580000000    -4.755000000
H    -2.879000000    -4.380000000    -3.424000000
C    -0.821000000    -3.771000000    -3.129000000
C     0.238000000    -3.278000000    -3.904000000
H     0.004000000    -2.854000000    -4.877000000
C    -0.544000000    -4.372000000    -1.911000000
C     0.767000000    -4.483000000    -1.418000000
H     0.949000000    -4.922000000    -0.440000000
C     1.803000000    -3.923000000    -2.124000000
O     2.958000000    -3.793000000    -1.385000000
C     3.284000000    -2.513000000    -0.837000000
C     3.857000000    -2.515000000     0.594000000
C     3.300000000    -3.352000000     1.506000000
H     2.530000000    -4.048000000     1.184000000
C     4.868000000    -1.568000000     1.007000000
H     5.211000000    -0.803000000     0.314000000
O     4.201000000    -1.842000000    -1.716000000
H     2.408000000    -1.855000000    -0.745000000
C     1.554000000    -3.276000000    -3.352000000
C     2.684000000    -2.683000000    -4.027000000
H     2.494000000    -2.709000000    -5.102000000
H     3.577000000    -3.269000000    -3.800000000
C     2.866000000    -1.289000000    -3.634000000
C     3.642000000    -0.913000000    -2.530000000
C     3.790000000     0.390000000    -2.152000000
H     4.420000000     0.625000000    -1.297000000
C     3.333000000     1.405000000    -2.931000000
O     3.496000000     2.728000000    -2.415000000
C     2.339000000     3.275000000    -1.764000000
H     1.658000000     2.448000000    -1.515000000
C     2.649000000     3.988000000    -0.469000000
C     1.844000000     5.071000000    -0.051000000
H     1.122000000     5.543000000    -0.712000000
C     3.768000000     3.630000000     0.228000000
H     4.370000000     2.803000000    -0.141000000
C     4.116000000     4.359000000     1.323000000
O     5.216000000     4.016000000     2.101000000
C     3.287000000     5.416000000     1.796000000
H     3.506000000     5.852000000     2.767000000
C     2.229000000     5.804000000     1.067000000
O     1.560000000     6.871000000     1.564000000
C     0.169000000     7.021000000     1.387000000
C    -0.626000000     6.164000000     2.054000000
H    -0.261000000     5.358000000     2.686000000
C    -0.322000000     8.091000000     0.612000000
H     0.231000000     8.908000000     0.155000000
C    -1.744000000     8.170000000     0.483000000
H    -2.113000000     8.960000000    -0.166000000
C    -2.614000000     7.237000000     1.097000000
H    -3.692000000     7.302000000     0.974000000
C    -2.009000000     6.239000000     1.898000000
O    -2.797000000     5.357000000     2.553000000
C    -3.444000000     4.185000000     2.175000000
C    -4.095000000     3.365000000     3.075000000
H    -4.268000000     3.686000000     4.099000000
C    -4.549000000     2.125000000     2.689000000
O    -5.069000000     1.223000000     3.592000000
C    -5.735000000     0.090000000     3.195000000
C    -5.311000000    -1.152000000     3.532000000
H    -4.369000000    -1.162000000     4.074000000
C    -6.922000000     0.156000000     2.589000000
H    -7.398000000     1.121000000     2.431000000
C    -7.726000000    -0.943000000     2.318000000
H    -8.701000000    -0.716000000     1.895000000
C    -7.246000000    -2.239000000     2.597000000
H    -7.860000000    -3.132000000     2.509000000
C    -6.005000000    -2.307000000     3.241000000
O    -5.518000000    -3.538000000     3.527000000
C    -4.228000000    -3.897000000     3.026000000
C    -3.293000000    -4.527000000     3.821000000
H    -3.513000000    -4.667000000     4.876000000
C    -2.052000000    -5.068000000     3.289000000
O    -1.245000000    -5.898000000     4.038000000
C     0.067000000    -6.042000000     3.683000000
C     1.150000000    -5.107000000     3.982000000
H     0.889000000    -4.177000000     4.481000000
C     0.402000000    -7.119000000     2.835000000
H    -0.385000000    -7.820000000     2.571000000
C     1.800000000    -7.318000000     2.477000000
H     1.934000000    -8.142000000     1.781000000
C     2.807000000    -6.405000000     2.829000000
H     3.783000000    -6.524000000     2.367000000
C     2.476000000    -5.302000000     3.583000000
O     3.408000000    -4.367000000     3.749000000
C     3.678000000    -3.338000000     2.839000000
C     4.619000000    -2.361000000     3.252000000
H     4.878000000    -2.312000000     4.307000000
C     5.289000000    -1.553000000     2.348000000
O     6.176000000    -0.578000000     2.875000000
C     6.450000000     0.566000000     2.263000000
C     7.426000000     0.641000000     1.235000000
H     7.946000000    -0.145000000     0.693000000
C     7.662000000     1.905000000     0.604000000
H     8.388000000     2.060000000    -0.190000000
C     7.016000000     3.014000000     1.075000000
H     7.255000000     3.930000000     0.541000000
C     5.970000000     2.866000000     1.946000000
C     5.747000000     1.687000000     2.615000000
H     4.916000000     1.604000000     3.311000000
C     1.150000000    -0.545000000     2.154000000
H     1.569000000    -1.311000000     2.801000000
C     0.541000000    -1.008000000     0.967000000
H     0.494000000    -2.086000000     0.833000000
C     0.170000000    -0.142000000     0.005000000
H    -0.159000000    -0.515000000    -0.897000000
C     0.232000000     1.200000000     0.253000000
H    -0.073000000     1.888000000    -0.532000000
C     0.743000000     1.716000000     1.491000000
H     0.868000000     2.767000000     1.737000000
C     1.249000000     0.816000000     2.455000000
C     1.774000000     1.345000000     3.755000000
O     1.680000000     2.523000000     4.097000000
O     2.191000000     0.546000000     4.560000000
O     0.712000000     0.804000000     6.780000000
H     1.522000000     0.957000000     7.265000000
H     0.989000000     0.729000000     5.867000000
O     4.429000000     0.665000000     9.248000000
H     4.332000000    -0.107000000     9.805000000
H     4.560000000     0.311000000     8.368000000
O     6.095000000     4.105000000     5.768000000
H     5.250000000     3.656000000     5.765000000
H     6.072000000     4.664000000     4.991000000
O     7.006000000     0.659000000     5.516000000
H     7.117000000     1.397000000     6.115000000
H     7.180000000     1.026000000     4.649000000
O     4.892000000    -0.698000000     6.649000000
H     4.922000000    -1.654000000     6.690000000
H     5.621000000    -0.460000000     6.076000000
O     4.230000000     3.620000000     8.334000000
H     3.534000000     3.300000000     8.906000000
H     4.298000000     2.959000000     7.645000000
O    -1.598000000     0.074000000     4.536000000
H    -1.519000000     0.139000000     3.584000000
H    -1.417000000     0.959000000     4.853000000
O    -0.852000000     3.378000000     4.308000000
H     0.062000000     3.118000000     4.200000000
H    -0.808000000     4.259000000     4.681000000
O     1.767000000    -2.093000000     5.548000000
H     0.912000000    -1.904000000     5.161000000
H     2.318000000    -1.357000000     5.283000000
O     3.764000000     5.657000000     6.702000000
H     4.063000000     4.879000000     7.172000000
H     4.511000000     6.254000000     6.728000000
O     2.026000000     2.017000000     9.357000000
H     2.676000000     1.433000000     9.746000000
H     1.304000000     2.025000000     9.986000000
O     1.789000000     5.223000000     4.624000000
H     2.416000000     5.191000000     5.347000000
H     1.862000000     4.365000000     4.206000000
O     0.456000000    -1.735000000     8.413000000
H     0.008000000    -1.022000000     7.957000000
H     1.032000000    -2.117000000     7.751000000
O    -1.422000000    -2.074000000     6.153000000
H    -1.553000000    -1.231000000     5.718000000
H    -2.216000000    -2.201000000     6.672000000
O     4.090000000     2.014000000     6.138000000
H     3.262000000     1.839000000     5.691000000
H     4.396000000     1.152000000     6.421000000
O    -1.659000000     0.915000000     8.320000000
H    -2.345000000     1.192000000     7.712000000
H    -0.856000000     0.934000000     7.799000000
O    -2.740000000     4.020000000     7.246000000
H    -3.102000000     3.220000000     6.864000000
H    -1.802000000     3.846000000     7.320000000
O     0.594000000     3.554000000     7.646000000
H     0.364000000     2.922000000     6.965000000
H     1.302000000     3.135000000     8.134000000
O     0.094000000     7.459000000     4.730000000
H     0.663000000     8.034000000     5.243000000
H     0.640000000     6.699000000     4.529000000
