215
-1460.92145
C    -4.729000000     0.865000000     2.346000000
H    -5.035000000    -0.040000000     1.827000000
C    -4.155000000     1.880000000     1.616000000
C    -3.752000000     3.009000000     2.312000000
H    -3.248000000     3.773000000     1.725000000
C    -3.910000000     1.709000000     0.103000000
O    -4.839000000     0.814000000    -0.521000000
H    -2.914000000     1.244000000     0.073000000
O    -3.850000000     3.032000000    -0.523000000
C    -2.961000000     3.238000000    -1.543000000
C    -1.829000000     3.982000000    -1.138000000
H    -1.782000000     4.422000000    -0.145000000
C    -0.827000000     4.207000000    -2.078000000
O     0.296000000     4.777000000    -1.558000000
C    -0.902000000     3.638000000    -3.340000000
C     0.365000000     3.656000000    -4.206000000
H     0.150000000     3.745000000    -5.272000000
C     1.313000000     2.507000000    -3.863000000
C     1.178000000     1.281000000    -4.558000000
H     0.490000000     1.204000000    -5.395000000
H     0.740000000     4.663000000    -4.008000000
C    -2.045000000     2.906000000    -3.692000000
H    -2.003000000     2.470000000    -4.687000000
C    -3.090000000     2.628000000    -2.829000000
C    -4.313000000     1.789000000    -3.235000000
H    -4.446000000     1.774000000    -4.319000000
H    -5.257000000     2.173000000    -2.844000000
C    -4.068000000     0.352000000    -2.755000000
C    -3.490000000    -0.589000000    -3.614000000
H    -3.302000000    -0.429000000    -4.673000000
C    -4.234000000    -0.048000000    -1.416000000
C    -3.935000000    -1.305000000    -0.989000000
H    -4.109000000    -1.621000000     0.037000000
C    -3.436000000    -2.250000000    -1.887000000
O    -3.266000000    -3.519000000    -1.454000000
C    -1.918000000    -3.836000000    -1.082000000
C    -1.796000000    -4.497000000     0.301000000
C    -0.819000000    -5.514000000     0.542000000
H    -0.156000000    -5.811000000    -0.266000000
C    -2.616000000    -4.111000000     1.333000000
H    -3.301000000    -3.277000000     1.207000000
O    -1.248000000    -4.589000000    -2.198000000
H    -1.368000000    -2.885000000    -1.030000000
C    -3.106000000    -1.879000000    -3.181000000
C    -2.447000000    -2.901000000    -4.197000000
H    -2.687000000    -2.663000000    -5.235000000
H    -3.037000000    -3.810000000    -4.063000000
C    -0.984000000    -3.008000000    -3.942000000
C    -0.118000000    -2.128000000    -4.573000000
H    -0.501000000    -1.371000000    -5.252000000
C    -0.423000000    -3.912000000    -3.040000000
C     0.946000000    -3.824000000    -2.748000000
H     1.254000000    -4.461000000    -1.923000000
C     1.813000000    -2.994000000    -3.386000000
O     3.010000000    -2.780000000    -2.826000000
C     3.246000000    -1.614000000    -2.015000000
C     3.971000000    -1.938000000    -0.711000000
C     3.900000000    -3.205000000    -0.081000000
H     3.199000000    -3.933000000    -0.482000000
C     4.726000000    -0.942000000    -0.017000000
H     4.745000000     0.045000000    -0.471000000
O     3.832000000    -0.640000000    -2.848000000
H     2.283000000    -1.183000000    -1.705000000
C     1.216000000    -2.064000000    -4.267000000
C     2.022000000    -1.055000000    -4.981000000
H     1.749000000    -0.786000000    -6.003000000
H     3.042000000    -1.406000000    -5.147000000
C     2.030000000     0.234000000    -4.267000000
C     3.023000000     0.392000000    -3.304000000
C     3.103000000     1.538000000    -2.576000000
H     3.891000000     1.564000000    -1.827000000
C     2.265000000     2.609000000    -2.821000000
O     2.344000000     3.738000000    -2.011000000
C     1.269000000     3.872000000    -1.032000000
H     0.767000000     2.950000000    -0.707000000
C     1.934000000     4.410000000     0.274000000
C     1.188000000     5.115000000     1.195000000
H     0.108000000     5.173000000     1.085000000
C     3.290000000     4.148000000     0.540000000
H     3.947000000     3.636000000    -0.158000000
C     3.988000000     4.677000000     1.592000000
O     5.371000000     4.493000000     1.819000000
C     3.255000000     5.520000000     2.407000000
H     3.710000000     6.000000000     3.269000000
C     1.867000000     5.638000000     2.297000000
O     1.094000000     6.228000000     3.282000000
C    -0.334000000     6.178000000     3.344000000
C    -1.105000000     5.144000000     3.870000000
H    -0.707000000     4.152000000     4.070000000
C    -0.989000000     7.385000000     3.139000000
H    -0.305000000     8.172000000     2.834000000
C    -2.347000000     7.502000000     3.190000000
H    -2.812000000     8.450000000     2.931000000
C    -3.094000000     6.396000000     3.594000000
H    -4.176000000     6.423000000     3.691000000
C    -2.461000000     5.190000000     3.936000000
O    -3.239000000     4.146000000     4.459000000
C    -3.783000000     3.123000000     3.726000000
C    -4.328000000     2.087000000     4.431000000
H    -4.349000000     2.184000000     5.513000000
C    -4.833000000     0.976000000     3.748000000
O    -5.233000000    -0.076000000     4.509000000
C    -5.378000000    -1.353000000     4.024000000
C    -4.245000000    -2.148000000     4.090000000
H    -3.325000000    -1.776000000     4.535000000
C    -6.569000000    -1.779000000     3.446000000
H    -7.330000000    -1.015000000     3.313000000
C    -6.621000000    -3.028000000     2.801000000
H    -7.555000000    -3.180000000     2.265000000
C    -5.516000000    -3.897000000     2.843000000
H    -5.639000000    -4.917000000     2.487000000
C    -4.331000000    -3.458000000     3.509000000
O    -3.259000000    -4.277000000     3.608000000
C    -2.604000000    -4.784000000     2.539000000
C    -1.688000000    -5.824000000     2.679000000
H    -1.713000000    -6.288000000     3.661000000
C    -0.660000000    -6.120000000     1.768000000
O     0.431000000    -6.874000000     2.218000000
C     1.634000000    -6.819000000     1.600000000
C     2.409000000    -5.691000000     1.825000000
H     2.066000000    -4.824000000     2.384000000
C     2.163000000    -7.912000000     1.062000000
H     1.630000000    -8.858000000     1.110000000
C     3.449000000    -7.901000000     0.496000000
H     3.908000000    -8.731000000    -0.035000000
C     4.203000000    -6.787000000     0.757000000
H     5.268000000    -6.715000000     0.549000000
C     3.710000000    -5.655000000     1.373000000
O     4.620000000    -4.699000000     1.750000000
C     4.678000000    -3.495000000     1.028000000
C     5.458000000    -2.498000000     1.556000000
H     5.940000000    -2.720000000     2.505000000
C     5.462000000    -1.213000000     1.116000000
O     6.205000000    -0.266000000     1.852000000
C     6.515000000     1.007000000     1.372000000
C     7.749000000     1.218000000     0.847000000
H     8.401000000     0.382000000     0.605000000
C     8.202000000     2.455000000     0.591000000
H     9.211000000     2.627000000     0.225000000
C     7.303000000     3.567000000     0.767000000
H     7.659000000     4.568000000     0.537000000
C     6.067000000     3.364000000     1.354000000
C     5.684000000     2.096000000     1.613000000
H     4.771000000     1.820000000     2.135000000
C     2.015000000    -1.680000000     2.546000000
H     2.314000000    -2.603000000     3.038000000
C     1.207000000    -1.801000000     1.450000000
H     0.746000000    -2.760000000     1.227000000
C     0.965000000    -0.738000000     0.678000000
H     0.355000000    -0.856000000    -0.260000000
C     1.411000000     0.506000000     1.056000000
H     1.160000000     1.330000000     0.393000000
C     2.143000000     0.629000000     2.247000000
H     2.384000000     1.655000000     2.514000000
C     2.590000000    -0.479000000     2.958000000
C     3.214000000    -0.284000000     4.338000000
O     3.596000000     0.813000000     4.783000000
O     3.505000000    -1.256000000     4.990000000
O     7.322000000    -4.595000000     3.892000000
H     7.864000000    -3.927000000     3.472000000
H     6.703000000    -4.099000000     4.428000000
O     3.840000000     0.462000000     7.568000000
H     3.849000000     0.332000000     6.619000000
H     4.727000000     0.753000000     7.778000000
O     6.569000000     2.708000000     7.245000000
H     6.097000000     2.803000000     6.418000000
H     5.885000000     2.708000000     7.914000000
O     1.904000000    -2.483000000     8.746000000
H     2.098000000    -1.915000000     9.491000000
H     1.484000000    -3.251000000     9.133000000
O     4.542000000    -3.866000000     7.625000000
H     3.709000000    -3.409000000     7.739000000
H     4.307000000    -4.691000000     7.200000000
O     1.257000000    -1.590000000     6.263000000
H     2.131000000    -1.666000000     5.882000000
H     1.277000000    -2.167000000     7.026000000
O     3.958000000     3.852000000     7.327000000
H     4.310000000     3.625000000     6.466000000
H     3.181000000     4.377000000     7.138000000
O     1.026000000     0.525000000     7.798000000
H     1.978000000     0.622000000     7.790000000
H     0.855000000    -0.206000000     7.205000000
O     1.782000000     2.861000000     4.811000000
H     1.159000000     2.407000000     5.378000000
H     2.590000000     2.354000000     4.888000000
O     7.059000000     0.191000000     8.267000000
H     6.827000000    -0.067000000     7.376000000
H     7.242000000     1.129000000     8.205000000
O     4.970000000     3.059000000     4.867000000
H     5.192000000     3.580000000     4.095000000
H     4.666000000     2.224000000     4.512000000
O    -0.962000000    -1.328000000     4.455000000
H    -0.901000000    -1.211000000     3.507000000
H    -0.054000000    -1.316000000     4.757000000
O     1.714000000     5.507000000     6.215000000
H     1.698000000     4.776000000     5.597000000
H     0.844000000     5.501000000     6.614000000
O     5.777000000    -2.847000000     5.150000000
H     5.019000000    -2.318000000     4.901000000
H     5.636000000    -3.048000000     6.076000000
O     6.311000000    -0.264000000     5.561000000
H     5.505000000     0.115000000     5.211000000
H     6.255000000    -1.193000000     5.336000000
O     2.769000000     1.852000000     9.839000000
H     3.180000000     1.398000000     9.104000000
H     1.965000000     1.360000000    10.005000000
O    -2.278000000    -2.697000000     6.926000000
H    -1.600000000    -3.297000000     7.235000000
H    -1.836000000    -2.150000000     6.277000000
O     7.684000000     1.858000000     4.346000000
H     7.591000000     1.285000000     5.107000000
H     8.159000000     1.330000000     3.705000000
O     0.287000000     3.259000000     7.935000000
H     0.867000000     3.639000000     8.594000000
H     0.624000000     2.374000000     7.799000000
