215
-1472.70999
C    -4.769000000     0.412000000     1.895000000
H    -5.227000000    -0.398000000     1.332000000
C    -4.088000000     1.398000000     1.214000000
C    -3.568000000     2.428000000     2.023000000
H    -2.961000000     3.212000000     1.577000000
C    -3.868000000     1.338000000    -0.294000000
O    -4.746000000     0.342000000    -0.896000000
H    -2.818000000     1.013000000    -0.326000000
O    -3.989000000     2.617000000    -1.034000000
C    -2.946000000     2.766000000    -1.943000000
C    -1.952000000     3.590000000    -1.492000000
H    -2.043000000     4.044000000    -0.508000000
C    -0.788000000     3.736000000    -2.275000000
O     0.221000000     4.460000000    -1.712000000
C    -0.752000000     3.242000000    -3.576000000
C     0.525000000     3.421000000    -4.443000000
H     0.300000000     3.288000000    -5.503000000
C     1.709000000     2.472000000    -4.086000000
C     1.797000000     1.218000000    -4.776000000
H     1.102000000     0.928000000    -5.560000000
H     0.880000000     4.453000000    -4.401000000
C    -1.775000000     2.516000000    -4.024000000
H    -1.710000000     1.934000000    -4.940000000
C    -2.839000000     2.152000000    -3.207000000
C    -4.000000000     1.319000000    -3.669000000
H    -3.895000000     1.383000000    -4.754000000
H    -4.909000000     1.857000000    -3.390000000
C    -3.740000000    -0.070000000    -3.151000000
C    -3.049000000    -1.001000000    -3.972000000
H    -2.785000000    -0.695000000    -4.981000000
C    -4.195000000    -0.488000000    -1.881000000
C    -4.139000000    -1.778000000    -1.513000000
H    -4.535000000    -2.075000000    -0.546000000
C    -3.375000000    -2.614000000    -2.272000000
O    -3.008000000    -3.796000000    -1.580000000
C    -1.669000000    -3.770000000    -0.954000000
C    -1.776000000    -4.349000000     0.451000000
C    -0.615000000    -4.732000000     1.177000000
H     0.344000000    -4.480000000     0.731000000
C    -2.999000000    -4.503000000     1.142000000
H    -3.905000000    -4.203000000     0.623000000
O    -0.740000000    -4.535000000    -1.737000000
H    -1.308000000    -2.734000000    -0.862000000
C    -2.776000000    -2.245000000    -3.490000000
C    -1.821000000    -3.193000000    -4.286000000
H    -1.797000000    -2.828000000    -5.315000000
H    -2.198000000    -4.215000000    -4.204000000
C    -0.399000000    -3.159000000    -3.785000000
C     0.494000000    -2.335000000    -4.470000000
H     0.197000000    -1.639000000    -5.250000000
C     0.059000000    -3.785000000    -2.586000000
C     1.376000000    -3.556000000    -2.147000000
H     1.728000000    -4.018000000    -1.229000000
C     2.272000000    -2.768000000    -2.883000000
O     3.571000000    -2.482000000    -2.391000000
C     3.683000000    -1.228000000    -1.651000000
C     4.439000000    -1.489000000    -0.323000000
C     4.445000000    -2.722000000     0.305000000
H     3.874000000    -3.547000000    -0.113000000
C     5.182000000    -0.426000000     0.240000000
H     5.247000000     0.548000000    -0.238000000
O     4.358000000    -0.316000000    -2.517000000
H     2.692000000    -0.862000000    -1.347000000
C     1.799000000    -2.077000000    -3.983000000
C     2.711000000    -1.163000000    -4.842000000
H     2.362000000    -1.219000000    -5.876000000
H     3.757000000    -1.473000000    -4.798000000
C     2.692000000     0.252000000    -4.229000000
C     3.554000000     0.608000000    -3.227000000
C     3.484000000     1.871000000    -2.630000000
H     4.059000000     2.078000000    -1.731000000
C     2.555000000     2.785000000    -3.020000000
O     2.310000000     3.907000000    -2.191000000
C     1.299000000     3.797000000    -1.187000000
H     0.994000000     2.764000000    -0.962000000
C     1.758000000     4.456000000     0.077000000
C     0.834000000     5.208000000     0.807000000
H    -0.183000000     5.393000000     0.468000000
C     3.016000000     4.196000000     0.576000000
H     3.680000000     3.583000000    -0.027000000
C     3.397000000     4.832000000     1.762000000
O     4.717000000     4.850000000     2.129000000
C     2.493000000     5.515000000     2.565000000
H     2.772000000     5.885000000     3.548000000
C     1.184000000     5.711000000     2.021000000
O     0.310000000     6.410000000     2.752000000
C    -1.021000000     6.148000000     2.923000000
C    -1.421000000     4.836000000     3.162000000
H    -0.784000000     3.960000000     3.072000000
C    -1.947000000     7.184000000     2.985000000
H    -1.655000000     8.216000000     2.807000000
C    -3.212000000     7.010000000     3.441000000
H    -3.929000000     7.818000000     3.554000000
C    -3.563000000     5.700000000     3.822000000
H    -4.539000000     5.535000000     4.270000000
C    -2.678000000     4.616000000     3.747000000
O    -3.100000000     3.352000000     4.174000000
C    -3.625000000     2.383000000     3.405000000
C    -4.299000000     1.354000000     4.032000000
H    -4.367000000     1.327000000     5.117000000
C    -4.904000000     0.363000000     3.290000000
O    -5.489000000    -0.715000000     4.002000000
C    -5.818000000    -1.915000000     3.438000000
C    -4.855000000    -2.943000000     3.479000000
H    -3.885000000    -2.688000000     3.897000000
C    -7.078000000    -2.214000000     3.003000000
H    -7.871000000    -1.485000000     2.856000000
C    -7.356000000    -3.486000000     2.547000000
H    -8.347000000    -3.734000000     2.176000000
C    -6.426000000    -4.495000000     2.579000000
H    -6.776000000    -5.463000000     2.231000000
C    -5.143000000    -4.244000000     3.029000000
O    -4.236000000    -5.239000000     2.999000000
C    -3.028000000    -5.067000000     2.395000000
C    -1.902000000    -5.429000000     3.074000000
H    -1.912000000    -5.736000000     4.117000000
C    -0.662000000    -5.268000000     2.432000000
O     0.420000000    -5.685000000     3.145000000
C     1.653000000    -5.858000000     2.540000000
C     2.623000000    -4.887000000     2.730000000
H     2.481000000    -4.091000000     3.457000000
C     1.949000000    -7.021000000     1.832000000
H     1.221000000    -7.813000000     1.677000000
C     3.188000000    -7.117000000     1.178000000
H     3.459000000    -8.021000000     0.640000000
C     4.164000000    -6.149000000     1.316000000
H     5.197000000    -6.212000000     0.986000000
C     3.873000000    -4.970000000     2.106000000
O     4.799000000    -4.046000000     2.386000000
C     5.056000000    -2.844000000     1.575000000
C     5.808000000    -1.783000000     2.087000000
H     6.188000000    -1.815000000     3.104000000
C     5.879000000    -0.608000000     1.380000000
O     6.632000000     0.376000000     1.923000000
C     6.622000000     1.747000000     1.587000000
C     7.800000000     2.216000000     0.939000000
H     8.616000000     1.561000000     0.644000000
C     7.895000000     3.598000000     0.644000000
H     8.832000000     3.890000000     0.176000000
C     6.937000000     4.448000000     1.036000000
H     6.963000000     5.504000000     0.780000000
C     5.742000000     3.949000000     1.695000000
C     5.583000000     2.546000000     1.913000000
H     4.609000000     2.146000000     2.183000000
C     1.663000000    -0.952000000     2.115000000
H     2.207000000    -1.764000000     2.590000000
C     0.838000000    -1.248000000     1.046000000
H     0.775000000    -2.274000000     0.692000000
C     0.141000000    -0.232000000     0.408000000
H    -0.475000000    -0.350000000    -0.390000000
C     0.129000000     1.042000000     0.907000000
H    -0.421000000     1.840000000     0.413000000
C     0.867000000     1.297000000     2.017000000
H     0.854000000     2.279000000     2.481000000
C     1.785000000     0.352000000     2.565000000
C     2.557000000     0.653000000     3.852000000
O     2.879000000     1.805000000     4.096000000
O     2.813000000    -0.304000000     4.593000000
O     4.720000000     0.044000000     8.410000000
H     3.950000000    -0.507000000     8.268000000
H     4.895000000     0.435000000     7.554000000
O     7.389000000    -2.441000000     6.224000000
H     6.448000000    -2.300000000     6.123000000
H     7.573000000    -2.195000000     7.131000000
O     4.729000000    -2.636000000     5.432000000
H     4.359000000    -2.369000000     4.590000000
H     4.791000000    -3.590000000     5.374000000
O     2.438000000    -0.789000000     7.059000000
H     2.692000000    -0.650000000     6.147000000
H     2.215000000    -1.719000000     7.106000000
O     1.800000000     1.920000000     6.760000000
H     1.864000000     0.965000000     6.798000000
H     2.447000000     2.176000000     6.103000000
O    -1.993000000     1.682000000     8.423000000
H    -1.723000000     2.235000000     7.690000000
H    -1.242000000     1.688000000     9.017000000
O     8.797000000     0.050000000     4.856000000
H     8.785000000    -0.856000000     5.166000000
H     8.039000000     0.457000000     5.275000000
O     4.358000000     3.885000000     4.806000000
H     4.813000000     4.245000000     4.045000000
H     3.958000000     3.076000000     4.487000000
O    -0.179000000    -0.307000000     5.802000000
H     0.729000000    -0.610000000     5.802000000
H    -0.423000000    -0.282000000     4.877000000
O    -1.438000000    -0.635000000     3.205000000
H    -2.084000000    -0.090000000     2.756000000
H    -0.740000000    -0.758000000     2.561000000
O    -0.824000000     3.002000000     6.218000000
H    -1.293000000     2.617000000     5.478000000
H    -0.043000000     2.458000000     6.316000000
O     1.931000000    -3.314000000     7.357000000
H     2.608000000    -3.926000000     7.071000000
H     1.596000000    -3.689000000     8.171000000
O     2.105000000     4.300000000     8.328000000
H     2.032000000     3.401000000     8.008000000
H     2.249000000     4.824000000     7.540000000
O     5.819000000     0.843000000     4.966000000
H     4.932000000     0.487000000     5.020000000
H     6.022000000     0.843000000     4.031000000
O     2.945000000     5.588000000     6.240000000
H     2.331000000     5.880000000     5.566000000
H     3.644000000     5.151000000     5.754000000
O     7.741000000     3.174000000     5.438000000
H     7.775000000     4.126000000     5.342000000
H     6.823000000     2.951000000     5.284000000
O    -2.481000000    -0.849000000     7.582000000
H    -1.661000000    -0.878000000     7.088000000
H    -2.313000000    -0.224000000     8.287000000
O    -1.922000000    -2.856000000     5.248000000
H    -1.209000000    -2.691000000     5.865000000
H    -1.575000000    -2.574000000     4.401000000
O     3.828000000     1.457000000    10.644000000
H     3.928000000     2.373000000    10.387000000
H     3.989000000     0.964000000     9.840000000
