215
-1449.25406
C    -4.300000000     1.657000000     1.094000000
H    -4.502000000     0.639000000     0.770000000
C    -3.993000000     2.581000000     0.127000000
C    -3.785000000     3.936000000     0.446000000
H    -3.517000000     4.623000000    -0.352000000
C    -3.637000000     2.081000000    -1.293000000
O    -4.555000000     1.159000000    -1.927000000
H    -2.742000000     1.449000000    -1.195000000
O    -3.432000000     3.101000000    -2.293000000
C    -2.274000000     2.977000000    -2.996000000
C    -1.203000000     3.677000000    -2.489000000
H    -1.296000000     4.343000000    -1.636000000
C     0.062000000     3.543000000    -2.977000000
O     1.100000000     4.073000000    -2.221000000
C     0.230000000     2.673000000    -4.054000000
C     1.595000000     2.578000000    -4.727000000
H     1.416000000     2.406000000    -5.790000000
C     2.372000000     1.465000000    -4.014000000
C     2.211000000     0.189000000    -4.460000000
H     1.600000000    -0.079000000    -5.318000000
H     2.157000000     3.501000000    -4.573000000
C    -0.815000000     1.934000000    -4.637000000
H    -0.703000000     1.157000000    -5.389000000
C    -2.125000000     2.072000000    -4.060000000
C    -3.282000000     1.215000000    -4.496000000
H    -3.140000000     0.988000000    -5.555000000
H    -4.277000000     1.652000000    -4.393000000
C    -3.377000000    -0.042000000    -3.622000000
C    -2.802000000    -1.216000000    -4.148000000
H    -2.237000000    -1.222000000    -5.077000000
C    -4.129000000    -0.083000000    -2.407000000
C    -4.258000000    -1.325000000    -1.699000000
H    -4.745000000    -1.230000000    -0.732000000
C    -3.570000000    -2.446000000    -2.184000000
O    -3.488000000    -3.558000000    -1.290000000
C    -2.224000000    -3.744000000    -0.562000000
C    -2.474000000    -4.132000000     0.924000000
C    -1.595000000    -5.041000000     1.566000000
H    -0.799000000    -5.519000000     1.001000000
C    -3.624000000    -3.734000000     1.582000000
H    -4.378000000    -3.117000000     1.099000000
O    -1.550000000    -4.786000000    -1.288000000
H    -1.689000000    -2.783000000    -0.585000000
C    -2.829000000    -2.413000000    -3.411000000
C    -2.107000000    -3.639000000    -3.993000000
H    -1.968000000    -3.341000000    -5.034000000
H    -2.730000000    -4.535000000    -3.955000000
C    -0.699000000    -3.682000000    -3.330000000
C     0.363000000    -3.070000000    -4.011000000
H     0.234000000    -2.585000000    -4.975000000
C    -0.458000000    -4.342000000    -2.101000000
C     0.791000000    -4.365000000    -1.570000000
H     0.848000000    -4.907000000    -0.629000000
C     1.832000000    -3.707000000    -2.201000000
O     2.990000000    -3.512000000    -1.474000000
C     3.267000000    -2.240000000    -0.970000000
C     3.831000000    -2.327000000     0.486000000
C     3.253000000    -3.153000000     1.413000000
H     2.561000000    -3.921000000     1.077000000
C     4.926000000    -1.557000000     0.879000000
H     5.410000000    -0.865000000     0.194000000
O     4.120000000    -1.591000000    -1.873000000
H     2.305000000    -1.708000000    -0.993000000
C     1.645000000    -3.080000000    -3.444000000
C     2.699000000    -2.344000000    -4.229000000
H     2.593000000    -2.471000000    -5.308000000
H     3.664000000    -2.852000000    -4.173000000
C     2.847000000    -0.900000000    -3.755000000
C     3.646000000    -0.604000000    -2.696000000
C     3.718000000     0.676000000    -2.152000000
H     4.391000000     0.933000000    -1.338000000
C     3.069000000     1.707000000    -2.849000000
O     3.097000000     2.928000000    -2.238000000
C     1.970000000     3.267000000    -1.396000000
H     1.421000000     2.349000000    -1.137000000
C     2.393000000     3.963000000    -0.092000000
C     1.543000000     4.841000000     0.499000000
H     0.714000000     5.143000000    -0.134000000
C     3.555000000     3.519000000     0.514000000
H     4.106000000     2.639000000     0.192000000
C     3.937000000     4.159000000     1.703000000
O     5.116000000     3.864000000     2.354000000
C     3.116000000     5.118000000     2.246000000
H     3.434000000     5.584000000     3.175000000
C     1.866000000     5.459000000     1.673000000
O     1.150000000     6.491000000     2.127000000
C    -0.105000000     6.866000000     1.688000000
C    -1.197000000     6.093000000     2.072000000
H    -1.045000000     5.123000000     2.538000000
C    -0.250000000     8.124000000     1.196000000
H     0.650000000     8.577000000     0.789000000
C    -1.543000000     8.585000000     0.863000000
H    -1.708000000     9.465000000     0.248000000
C    -2.655000000     7.757000000     1.214000000
H    -3.642000000     8.158000000     0.996000000
C    -2.548000000     6.499000000     1.810000000
O    -3.682000000     5.719000000     2.028000000
C    -3.876000000     4.349000000     1.758000000
C    -4.208000000     3.422000000     2.742000000
H    -4.464000000     3.815000000     3.723000000
C    -4.366000000     2.075000000     2.460000000
O    -4.647000000     1.119000000     3.483000000
C    -5.369000000    -0.034000000     3.334000000
C    -4.755000000    -1.273000000     3.616000000
H    -3.781000000    -1.332000000     4.095000000
C    -6.724000000     0.019000000     2.980000000
H    -7.170000000     0.981000000     2.739000000
C    -7.480000000    -1.165000000     2.880000000
H    -8.481000000    -1.144000000     2.458000000
C    -6.867000000    -2.375000000     3.121000000
H    -7.303000000    -3.311000000     2.782000000
C    -5.527000000    -2.419000000     3.452000000
O    -4.974000000    -3.663000000     3.651000000
C    -3.844000000    -4.072000000     2.976000000
C    -2.958000000    -4.973000000     3.572000000
H    -3.157000000    -5.339000000     4.576000000
C    -1.806000000    -5.342000000     2.899000000
O    -1.011000000    -6.324000000     3.425000000
C     0.335000000    -6.372000000     3.406000000
C     1.041000000    -5.174000000     3.509000000
H     0.552000000    -4.219000000     3.683000000
C     0.959000000    -7.567000000     3.252000000
H     0.398000000    -8.489000000     3.127000000
C     2.337000000    -7.617000000     3.172000000
H     2.850000000    -8.575000000     3.149000000
C     3.049000000    -6.468000000     3.422000000
H     4.098000000    -6.702000000     3.586000000
C     2.416000000    -5.226000000     3.450000000
O     3.117000000    -4.079000000     3.689000000
C     3.628000000    -3.175000000     2.753000000
C     4.601000000    -2.299000000     3.203000000
H     4.812000000    -2.379000000     4.266000000
C     5.284000000    -1.492000000     2.227000000
O     6.224000000    -0.593000000     2.752000000
C     6.495000000     0.636000000     2.138000000
C     7.804000000     0.892000000     1.594000000
H     8.577000000     0.134000000     1.494000000
C     8.149000000     2.209000000     1.361000000
H     9.160000000     2.552000000     1.154000000
C     7.249000000     3.234000000     1.618000000
H     7.407000000     4.303000000     1.500000000
C     5.935000000     2.891000000     2.017000000
C     5.565000000     1.631000000     2.328000000
H     4.602000000     1.415000000     2.784000000
C     1.097000000    -0.401000000     2.201000000
H     1.581000000    -1.072000000     2.906000000
C     0.706000000    -0.887000000     0.967000000
H     0.868000000    -1.951000000     0.811000000
C     0.086000000    -0.059000000     0.062000000
H    -0.138000000    -0.494000000    -0.940000000
C    -0.189000000     1.267000000     0.448000000
H    -0.813000000     1.796000000    -0.268000000
C     0.165000000     1.698000000     1.715000000
H    -0.174000000     2.710000000     1.919000000
C     0.790000000     0.890000000     2.631000000
C     1.194000000     1.428000000     4.018000000
O     0.705000000     2.468000000     4.393000000
O     1.725000000     0.651000000     4.756000000
O    -1.120000000     0.102000000     7.623000000
H    -1.886000000     0.429000000     7.152000000
H    -0.815000000    -0.639000000     7.099000000
O     0.573000000     2.046000000     7.054000000
H    -0.232000000     1.665000000     7.405000000
H     0.461000000     2.010000000     6.104000000
O    -0.075000000    -1.240000000     5.454000000
H     0.503000000    -0.548000000     5.133000000
H     0.497000000    -2.000000000     5.559000000
O    -1.113000000     4.315000000     5.090000000
H    -0.388000000     3.726000000     4.880000000
H    -0.956000000     4.573000000     5.998000000
O     1.978000000    -1.706000000     7.624000000
H     2.048000000    -1.318000000     8.496000000
H     2.519000000    -1.145000000     7.068000000
O     6.375000000     0.669000000     5.341000000
H     6.443000000    -0.183000000     5.773000000
H     6.553000000     0.484000000     4.419000000
O     4.659000000     0.171000000     8.807000000
H     4.675000000     1.102000000     9.027000000
H     4.349000000     0.144000000     7.902000000
O     2.067000000     4.698000000     5.339000000
H     2.887000000     4.372000000     5.711000000
H     1.748000000     3.978000000     4.796000000
O    -2.046000000    -2.945000000     5.634000000
H    -1.388000000    -2.257000000     5.537000000
H    -2.729000000    -2.549000000     6.175000000
O     1.981000000     1.782000000    10.794000000
H     1.361000000     2.510000000    10.751000000
H     2.190000000     1.590000000     9.880000000
O    -0.432000000     4.425000000     8.138000000
H     0.208000000     3.830000000     7.749000000
H     0.064000000     5.222000000     8.326000000
O     3.867000000     0.231000000     6.102000000
H     3.124000000     0.465000000     5.546000000
H     4.636000000     0.502000000     5.600000000
O    -3.235000000     6.049000000     5.292000000
H    -2.558000000     5.409000000     5.071000000
H    -2.814000000     6.898000000     5.163000000
O     6.170000000     2.132000000     7.604000000
H     7.044000000     2.125000000     7.996000000
H     6.279000000     1.677000000     6.769000000
O    -1.752000000     0.675000000    10.108000000
H    -1.353000000     0.750000000     9.241000000
H    -2.295000000    -0.111000000    10.054000000
O     4.497000000     3.952000000     6.149000000
H     4.603000000     3.768000000     5.215000000
H     5.320000000     3.665000000     6.545000000
O    -2.536000000     1.439000000     5.605000000
H    -1.808000000     1.997000000     5.332000000
H    -2.879000000     1.075000000     4.789000000
O     0.465000000     6.742000000     5.777000000
H     1.080000000     6.042000000     5.559000000
H     0.969000000     7.339000000     6.330000000
O     3.002000000     2.648000000     8.301000000
H     2.221000000     2.691000000     7.750000000
H     3.731000000     2.782000000     7.695000000
