215
-1453.19493
C    -4.552000000     0.146000000     2.231000000
H    -4.529000000    -0.818000000     1.730000000
C    -4.446000000     1.267000000     1.420000000
C    -4.483000000     2.490000000     1.973000000
H    -4.276000000     3.389000000     1.398000000
C    -4.186000000     1.146000000    -0.088000000
O    -4.888000000     0.066000000    -0.662000000
H    -3.124000000     0.890000000    -0.217000000
O    -4.312000000     2.396000000    -0.832000000
C    -3.227000000     2.674000000    -1.583000000
C    -2.278000000     3.534000000    -1.028000000
H    -2.415000000     3.935000000    -0.027000000
C    -1.155000000     3.884000000    -1.792000000
O    -0.126000000     4.687000000    -1.266000000
C    -1.061000000     3.392000000    -3.119000000
C     0.113000000     3.734000000    -4.011000000
H    -0.141000000     3.590000000    -5.064000000
C     1.306000000     2.846000000    -3.716000000
C     1.486000000     1.692000000    -4.506000000
H     0.639000000     1.390000000    -5.117000000
H     0.405000000     4.784000000    -3.938000000
C    -2.084000000     2.577000000    -3.628000000
H    -1.979000000     2.160000000    -4.627000000
C    -3.134000000     2.173000000    -2.870000000
C    -4.170000000     1.225000000    -3.381000000
H    -4.239000000     1.190000000    -4.471000000
H    -5.131000000     1.508000000    -2.946000000
C    -3.858000000    -0.221000000    -2.935000000
C    -3.115000000    -1.056000000    -3.781000000
H    -2.848000000    -0.688000000    -4.768000000
C    -4.267000000    -0.706000000    -1.630000000
C    -3.949000000    -2.038000000    -1.338000000
H    -4.150000000    -2.479000000    -0.366000000
C    -3.221000000    -2.858000000    -2.139000000
O    -2.724000000    -4.028000000    -1.696000000
C    -1.332000000    -3.929000000    -1.250000000
C    -1.213000000    -4.468000000     0.121000000
C    -0.009000000    -4.926000000     0.660000000
H     0.892000000    -4.843000000     0.057000000
C    -2.330000000    -4.635000000     0.929000000
H    -3.321000000    -4.280000000     0.659000000
O    -0.417000000    -4.459000000    -2.146000000
H    -1.073000000    -2.861000000    -1.206000000
C    -2.733000000    -2.329000000    -3.350000000
C    -1.768000000    -3.154000000    -4.259000000
H    -2.010000000    -2.986000000    -5.310000000
H    -1.906000000    -4.219000000    -4.063000000
C    -0.247000000    -2.849000000    -3.920000000
C     0.529000000    -1.856000000    -4.598000000
H     0.056000000    -1.289000000    -5.395000000
C     0.345000000    -3.630000000    -2.972000000
C     1.735000000    -3.435000000    -2.667000000
H     2.126000000    -3.956000000    -1.796000000
C     2.452000000    -2.386000000    -3.279000000
O     3.733000000    -2.185000000    -2.790000000
C     3.809000000    -0.978000000    -1.925000000
C     4.642000000    -1.270000000    -0.670000000
C     4.627000000    -2.530000000    -0.088000000
H     3.984000000    -3.282000000    -0.539000000
C     5.339000000    -0.302000000     0.015000000
H     5.414000000     0.661000000    -0.484000000
O     4.354000000     0.112000000    -2.696000000
H     2.759000000    -0.705000000    -1.745000000
C     1.858000000    -1.600000000    -4.264000000
C     2.674000000    -0.478000000    -4.980000000
H     2.139000000    -0.208000000    -5.893000000
H     3.690000000    -0.687000000    -5.322000000
C     2.563000000     0.812000000    -4.182000000
C     3.417000000     1.042000000    -3.171000000
C     3.250000000     2.242000000    -2.453000000
H     3.857000000     2.433000000    -1.572000000
C     2.241000000     3.121000000    -2.683000000
O     2.014000000     4.136000000    -1.777000000
C     0.916000000     3.955000000    -0.731000000
H     0.691000000     2.896000000    -0.532000000
C     1.303000000     4.448000000     0.669000000
C     0.390000000     5.099000000     1.536000000
H    -0.581000000     5.426000000     1.172000000
C     2.509000000     4.118000000     1.223000000
H     3.240000000     3.541000000     0.662000000
C     2.899000000     4.415000000     2.510000000
O     4.165000000     4.156000000     2.987000000
C     1.991000000     5.083000000     3.329000000
H     2.315000000     5.467000000     4.293000000
C     0.710000000     5.304000000     2.888000000
O    -0.161000000     6.014000000     3.696000000
C    -1.469000000     5.948000000     3.462000000
C    -2.189000000     4.809000000     3.794000000
H    -1.834000000     3.939000000     4.342000000
C    -2.065000000     6.982000000     2.727000000
H    -1.464000000     7.780000000     2.298000000
C    -3.312000000     6.896000000     2.275000000
H    -3.649000000     7.729000000     1.663000000
C    -4.093000000     5.801000000     2.615000000
H    -5.130000000     5.748000000     2.292000000
C    -3.513000000     4.782000000     3.367000000
O    -4.309000000     3.751000000     3.967000000
C    -4.691000000     2.621000000     3.386000000
C    -4.924000000     1.534000000     4.200000000
H    -4.906000000     1.608000000     5.284000000
C    -4.839000000     0.270000000     3.602000000
O    -4.877000000    -0.846000000     4.436000000
C    -5.096000000    -2.073000000     3.956000000
C    -4.017000000    -2.959000000     3.704000000
H    -2.995000000    -2.681000000     3.950000000
C    -6.418000000    -2.422000000     3.811000000
H    -7.203000000    -1.725000000     4.091000000
C    -6.771000000    -3.646000000     3.234000000
H    -7.805000000    -3.922000000     3.042000000
C    -5.704000000    -4.539000000     2.840000000
H    -5.971000000    -5.452000000     2.316000000
C    -4.359000000    -4.215000000     3.125000000
O    -3.431000000    -5.277000000     3.019000000
C    -2.321000000    -5.126000000     2.244000000
C    -1.043000000    -5.550000000     2.719000000
H    -1.000000000    -6.014000000     3.701000000
C     0.094000000    -5.511000000     1.897000000
O     1.318000000    -5.909000000     2.429000000
C     2.527000000    -6.091000000     1.757000000
C     3.509000000    -5.103000000     1.898000000
H     3.226000000    -4.200000000     2.433000000
C     2.782000000    -7.238000000     1.035000000
H     2.060000000    -8.047000000     0.965000000
C     4.012000000    -7.376000000     0.358000000
H     4.237000000    -8.224000000    -0.284000000
C     5.009000000    -6.373000000     0.575000000
H     5.970000000    -6.532000000     0.093000000
C     4.761000000    -5.244000000     1.338000000
O     5.670000000    -4.172000000     1.354000000
C     5.363000000    -2.866000000     1.019000000
C     6.038000000    -1.868000000     1.707000000
H     6.633000000    -2.108000000     2.584000000
C     6.020000000    -0.586000000     1.203000000
O     6.864000000     0.362000000     1.713000000
C     6.633000000     1.771000000     1.623000000
C     7.202000000     2.500000000     0.618000000
H     7.929000000     1.979000000     0.000000000
C     6.660000000     3.727000000     0.338000000
H     6.892000000     4.230000000    -0.597000000
C     5.800000000     4.389000000     1.267000000
H     5.589000000     5.450000000     1.162000000
C     5.237000000     3.648000000     2.304000000
C     5.639000000     2.353000000     2.502000000
H     5.303000000     1.699000000     3.302000000
C     1.881000000    -0.675000000     1.633000000
H     2.777000000    -1.265000000     1.810000000
C     1.018000000    -1.021000000     0.561000000
H     1.104000000    -1.939000000    -0.014000000
C    -0.068000000    -0.227000000     0.310000000
H    -0.733000000    -0.482000000    -0.512000000
C    -0.435000000     0.817000000     1.195000000
H    -1.373000000     1.323000000     0.986000000
C     0.369000000     1.108000000     2.352000000
H     0.049000000     1.857000000     3.072000000
C     1.545000000     0.375000000     2.517000000
C     2.434000000     0.707000000     3.716000000
O     2.102000000     1.534000000     4.469000000
O     3.353000000    -0.065000000     4.000000000
O     6.307000000    -3.649000000     5.575000000
H     5.378000000    -3.496000000     5.404000000
H     6.347000000    -3.871000000     6.505000000
O     7.691000000    -1.133000000     5.452000000
H     7.432000000    -2.011000000     5.172000000
H     7.651000000    -1.165000000     6.407000000
O     3.200000000    -2.715000000     4.508000000
H     3.375000000    -1.774000000     4.466000000
H     2.245000000    -2.779000000     4.533000000
O     3.131000000     1.275000000     9.104000000
H     3.059000000     1.427000000     8.161000000
H     3.755000000     1.935000000     9.405000000
O    -0.190000000     0.548000000     5.591000000
H     0.571000000     1.005000000     5.234000000
H    -0.779000000     1.249000000     5.873000000
O     2.225000000    -0.756000000     6.474000000
H     1.321000000    -0.463000000     6.584000000
H     2.501000000    -0.374000000     5.641000000
O     6.783000000     1.770000000     7.720000000
H     6.352000000     1.333000000     6.986000000
H     6.968000000     1.067000000     8.343000000
O     3.504000000     2.603000000     6.336000000
H     4.251000000     2.017000000     6.218000000
H     2.892000000     2.354000000     5.644000000
O     0.561000000    -3.494000000     4.332000000
H     0.440000000    -3.943000000     3.495000000
H     0.051000000    -2.688000000     4.248000000
O    -0.868000000    -1.315000000     3.749000000
H    -0.595000000    -0.814000000     4.518000000
H    -1.000000000    -0.656000000     3.068000000
O     0.701000000     3.877000000     6.151000000
H     1.493000000     3.343000000     6.088000000
H     0.304000000     3.619000000     6.983000000
O     5.171000000     6.629000000     3.703000000
H     4.538000000     7.051000000     3.121000000
H     5.244000000     5.735000000     3.370000000
O     3.201000000    -1.324000000     9.652000000
H     2.974000000    -1.980000000     8.994000000
H     3.016000000    -0.486000000     9.228000000
O     5.450000000     0.521000000     5.566000000
H     4.777000000     0.083000000     5.045000000
H     6.233000000    -0.015000000     5.444000000
O     3.039000000    -3.164000000     7.713000000
H     2.867000000    -2.478000000     7.068000000
H     3.985000000    -3.303000000     7.669000000
O    -2.084000000     1.851000000     7.012000000
H    -2.562000000     2.668000000     6.867000000
H    -2.766000000     1.202000000     7.186000000
O     0.239000000     2.536000000     8.748000000
H    -0.492000000     2.088000000     8.323000000
H     0.572000000     1.902000000     9.383000000
O    -0.089000000    -4.695000000     6.665000000
H     0.175000000    -4.491000000     5.768000000
H     0.385000000    -4.062000000     7.204000000
O     3.418000000     4.989000000     7.884000000
H     3.625000000     5.668000000     7.242000000
H     3.487000000     4.168000000     7.396000000
