215
-1412.49268
C    -4.086000000    -0.036000000     2.718000000
H    -4.444000000    -0.973000000     2.300000000
C    -3.784000000     1.034000000     1.908000000
C    -3.288000000     2.208000000     2.516000000
H    -2.908000000     3.037000000     1.924000000
C    -3.835000000     0.905000000     0.409000000
O    -4.846000000    -0.065000000    -0.081000000
H    -2.834000000     0.570000000     0.102000000
O    -4.096000000     2.202000000    -0.174000000
C    -3.414000000     2.662000000    -1.294000000
C    -2.415000000     3.601000000    -1.099000000
H    -2.296000000     4.034000000    -0.110000000
C    -1.525000000     3.897000000    -2.079000000
O    -0.486000000     4.751000000    -1.877000000
C    -1.668000000     3.291000000    -3.309000000
C    -0.608000000     3.540000000    -4.351000000
H    -0.967000000     3.405000000    -5.373000000
C     0.633000000     2.546000000    -4.128000000
C     0.660000000     1.292000000    -4.713000000
H    -0.181000000     1.033000000    -5.351000000
H    -0.181000000     4.543000000    -4.289000000
C    -2.772000000     2.414000000    -3.594000000
H    -2.877000000     2.001000000    -4.594000000
C    -3.622000000     2.096000000    -2.554000000
C    -4.634000000     0.994000000    -2.745000000
H    -4.927000000     0.978000000    -3.797000000
H    -5.534000000     1.319000000    -2.218000000
C    -4.159000000    -0.448000000    -2.435000000
C    -3.407000000    -1.271000000    -3.317000000
H    -3.275000000    -0.943000000    -4.345000000
C    -4.404000000    -0.860000000    -1.140000000
C    -3.929000000    -2.056000000    -0.695000000
H    -4.084000000    -2.315000000     0.350000000
C    -3.227000000    -2.922000000    -1.583000000
O    -2.683000000    -3.973000000    -1.081000000
C    -1.280000000    -3.943000000    -0.790000000
C    -1.056000000    -4.605000000     0.570000000
C     0.185000000    -5.200000000     0.799000000
H     0.921000000    -5.226000000    -0.001000000
C    -2.066000000    -4.565000000     1.559000000
H    -2.988000000    -4.022000000     1.372000000
O    -0.613000000    -4.691000000    -1.883000000
H    -1.003000000    -2.878000000    -0.797000000
C    -2.991000000    -2.547000000    -2.934000000
C    -2.203000000    -3.418000000    -3.858000000
H    -2.537000000    -3.245000000    -4.883000000
H    -2.553000000    -4.442000000    -3.707000000
C    -0.757000000    -3.287000000    -3.779000000
C    -0.100000000    -2.307000000    -4.610000000
H    -0.716000000    -1.695000000    -5.264000000
C     0.025000000    -3.977000000    -2.841000000
C     1.347000000    -3.742000000    -2.764000000
H     1.942000000    -4.140000000    -1.946000000
C     2.019000000    -2.729000000    -3.438000000
O     3.302000000    -2.347000000    -3.008000000
C     3.424000000    -1.106000000    -2.308000000
C     4.308000000    -1.262000000    -1.066000000
C     4.222000000    -2.329000000    -0.241000000
H     3.612000000    -3.195000000    -0.485000000
C     5.047000000    -0.135000000    -0.714000000
H     5.050000000     0.758000000    -1.333000000
O     3.809000000    -0.030000000    -3.168000000
H     2.459000000    -0.843000000    -1.849000000
C     1.217000000    -1.943000000    -4.354000000
C     1.793000000    -0.908000000    -5.159000000
H     1.267000000    -0.850000000    -6.114000000
H     2.845000000    -1.110000000    -5.372000000
C     1.803000000     0.438000000    -4.553000000
C     2.892000000     0.844000000    -3.696000000
C     2.864000000     2.205000000    -3.230000000
H     3.677000000     2.608000000    -2.632000000
C     1.703000000     2.963000000    -3.338000000
O     1.688000000     4.126000000    -2.550000000
C     0.757000000     4.246000000    -1.439000000
H     0.500000000     3.215000000    -1.155000000
C     1.259000000     4.932000000    -0.153000000
C     0.391000000     5.641000000     0.620000000
H    -0.610000000     5.931000000     0.310000000
C     2.533000000     4.475000000     0.411000000
H     3.097000000     3.799000000    -0.226000000
C     2.978000000     4.915000000     1.651000000
O     4.101000000     4.359000000     2.162000000
C     2.089000000     5.742000000     2.357000000
H     2.397000000     6.080000000     3.343000000
C     0.844000000     6.145000000     1.868000000
O     0.058000000     6.774000000     2.696000000
C    -1.138000000     6.326000000     3.079000000
C    -1.224000000     5.108000000     3.752000000
H    -0.367000000     4.450000000     3.872000000
C    -2.382000000     7.068000000     2.832000000
H    -2.358000000     8.069000000     2.410000000
C    -3.614000000     6.489000000     3.128000000
H    -4.514000000     6.949000000     2.727000000
C    -3.605000000     5.275000000     3.821000000
H    -4.562000000     4.859000000     4.127000000
C    -2.464000000     4.619000000     4.112000000
O    -2.553000000     3.354000000     4.624000000
C    -3.085000000     2.294000000     3.898000000
C    -3.505000000     1.219000000     4.647000000
H    -3.344000000     1.340000000     5.715000000
C    -4.034000000     0.034000000     4.133000000
O    -4.430000000    -0.961000000     4.971000000
C    -4.705000000    -2.246000000     4.459000000
C    -3.574000000    -3.061000000     4.229000000
H    -2.566000000    -2.662000000     4.307000000
C    -5.992000000    -2.774000000     4.473000000
H    -6.870000000    -2.140000000     4.570000000
C    -6.246000000    -4.085000000     4.192000000
H    -7.247000000    -4.510000000     4.177000000
C    -5.152000000    -4.941000000     3.985000000
H    -5.164000000    -5.963000000     3.615000000
C    -3.809000000    -4.418000000     3.904000000
O    -2.763000000    -5.276000000     3.748000000
C    -1.824000000    -5.112000000     2.779000000
C    -0.573000000    -5.600000000     3.040000000
H    -0.431000000    -6.139000000     3.973000000
C     0.414000000    -5.694000000     2.024000000
O     1.511000000    -6.494000000     2.188000000
C     2.749000000    -6.246000000     1.647000000
C     3.468000000    -5.096000000     2.038000000
H     3.152000000    -4.539000000     2.917000000
C     3.254000000    -7.069000000     0.672000000
H     2.582000000    -7.899000000     0.469000000
C     4.430000000    -6.763000000     0.034000000
H     4.684000000    -7.332000000    -0.857000000
C     5.073000000    -5.537000000     0.311000000
H     5.936000000    -5.301000000    -0.306000000
C     4.659000000    -4.702000000     1.364000000
O     5.326000000    -3.473000000     1.642000000
C     5.149000000    -2.333000000     0.894000000
C     5.831000000    -1.231000000     1.315000000
H     6.539000000    -1.289000000     2.138000000
C     5.928000000    -0.196000000     0.358000000
O     6.805000000     0.806000000     0.658000000
C     6.486000000     2.140000000     0.600000000
C     7.358000000     3.066000000    -0.122000000
H     8.240000000     2.643000000    -0.596000000
C     7.009000000     4.450000000    -0.095000000
H     7.580000000     5.177000000    -0.667000000
C     5.954000000     4.879000000     0.697000000
H     5.742000000     5.930000000     0.873000000
C     5.181000000     3.999000000     1.374000000
C     5.393000000     2.619000000     1.298000000
H     4.757000000     1.910000000     1.823000000
C     1.856000000    -0.618000000     2.012000000
H     2.611000000    -1.346000000     2.297000000
C     1.018000000    -0.896000000     0.951000000
H     1.096000000    -1.817000000     0.380000000
C     0.162000000     0.066000000     0.535000000
H    -0.409000000    -0.206000000    -0.336000000
C     0.034000000     1.300000000     1.225000000
H    -0.680000000     2.005000000     0.807000000
C     0.742000000     1.429000000     2.409000000
H     0.557000000     2.314000000     3.012000000
C     1.666000000     0.515000000     2.835000000
C     2.402000000     0.641000000     4.149000000
O     2.445000000     1.719000000     4.794000000
O     2.791000000    -0.331000000     4.698000000
O     2.334000000     1.105000000     9.689000000
H     2.018000000     0.558000000     8.969000000
H     3.250000000     0.850000000     9.800000000
O     6.148000000    -2.060000000     6.679000000
H     6.618000000    -2.885000000     6.562000000
H     5.658000000    -1.946000000     5.865000000
O     5.053000000    -1.774000000     4.338000000
H     4.338000000    -1.177000000     4.554000000
H     4.886000000    -2.031000000     3.431000000
O     3.510000000     3.736000000     8.234000000
H     3.220000000     3.352000000     9.062000000
H     3.493000000     3.008000000     7.613000000
O     0.108000000     1.902000000     5.822000000
H     1.001000000     1.743000000     5.517000000
H    -0.222000000     2.592000000     5.248000000
O     4.490000000     1.315000000     6.585000000
H     5.214000000     1.674000000     6.072000000
H     3.726000000     1.404000000     6.016000000
O     5.589000000     0.788000000     9.079000000
H     5.173000000     0.732000000     8.219000000
H     6.452000000     1.163000000     8.905000000
O     7.414000000     3.377000000     6.284000000
H     8.329000000     3.629000000     6.158000000
H     6.981000000     3.634000000     5.470000000
O     1.377000000    -2.557000000     9.016000000
H     0.569000000    -2.248000000     9.426000000
H     1.534000000    -1.939000000     8.301000000
O     1.739000000     5.975000000     5.860000000
H     2.336000000     6.718000000     5.765000000
H     2.315000000     5.220000000     5.983000000
O     2.630000000    -3.172000000     5.023000000
H     1.871000000    -2.974000000     5.571000000
H     2.730000000    -2.400000000     4.465000000
O    -0.279000000    -1.029000000     5.876000000
H    -0.585000000    -0.378000000     5.244000000
H    -1.051000000    -1.232000000     6.403000000
O    -0.478000000     4.172000000     8.132000000
H    -0.620000000     3.348000000     7.666000000
H     0.068000000     3.932000000     8.881000000
O     5.661000000    -1.993000000     9.364000000
H     5.468000000    -2.239000000     8.459000000
H     5.377000000    -1.081000000     9.430000000
O     2.251000000    -0.769000000     7.237000000
H     3.025000000    -0.835000000     6.678000000
H     1.528000000    -0.614000000     6.629000000
O     3.856000000     3.984000000     5.119000000
H     4.008000000     3.912000000     4.177000000
H     3.305000000     3.230000000     5.330000000
O     3.683000000    -4.954000000     6.814000000
H     3.668000000    -5.836000000     6.442000000
H     3.449000000    -4.382000000     6.083000000
O    -1.428000000     1.191000000     7.923000000
H    -0.920000000     1.360000000     7.130000000
H    -1.158000000     0.315000000     8.199000000
O     4.647000000     6.541000000     6.474000000
H     4.677000000     6.993000000     5.631000000
H     4.991000000     5.667000000     6.290000000
