215
-1451.13701
C    -5.187000000     0.050000000     1.811000000
H    -5.384000000    -0.941000000     1.412000000
C    -4.710000000     1.184000000     1.128000000
C    -4.479000000     2.374000000     1.764000000
H    -4.034000000     3.219000000     1.246000000
C    -4.301000000     0.952000000    -0.353000000
O    -5.083000000    -0.044000000    -1.022000000
H    -3.258000000     0.633000000    -0.497000000
O    -4.474000000     2.185000000    -0.995000000
C    -3.413000000     2.569000000    -1.808000000
C    -2.441000000     3.393000000    -1.272000000
H    -2.506000000     3.720000000    -0.238000000
C    -1.395000000     3.821000000    -2.033000000
O    -0.446000000     4.560000000    -1.351000000
C    -1.212000000     3.338000000    -3.311000000
C     0.088000000     3.566000000    -4.062000000
H    -0.177000000     3.475000000    -5.117000000
C     1.208000000     2.620000000    -3.622000000
C     1.407000000     1.432000000    -4.393000000
H     0.750000000     1.052000000    -5.172000000
H     0.368000000     4.615000000    -3.943000000
C    -2.206000000     2.481000000    -3.881000000
H    -2.000000000     2.043000000    -4.855000000
C    -3.316000000     2.080000000    -3.105000000
C    -4.370000000     1.069000000    -3.647000000
H    -4.225000000     1.167000000    -4.725000000
H    -5.394000000     1.375000000    -3.424000000
C    -4.053000000    -0.314000000    -3.217000000
C    -3.064000000    -1.007000000    -3.900000000
H    -2.598000000    -0.612000000    -4.799000000
C    -4.480000000    -0.841000000    -1.972000000
C    -4.112000000    -2.078000000    -1.555000000
H    -4.361000000    -2.372000000    -0.539000000
C    -3.192000000    -2.837000000    -2.263000000
O    -2.520000000    -3.936000000    -1.647000000
C    -1.155000000    -3.849000000    -1.146000000
C    -0.957000000    -4.438000000     0.279000000
C     0.087000000    -5.185000000     0.590000000
H     0.847000000    -5.443000000    -0.143000000
C    -1.803000000    -4.075000000     1.329000000
H    -2.710000000    -3.520000000     1.099000000
O    -0.338000000    -4.485000000    -2.080000000
H    -0.876000000    -2.786000000    -1.170000000
C    -2.656000000    -2.298000000    -3.446000000
C    -1.632000000    -3.097000000    -4.299000000
H    -1.830000000    -2.726000000    -5.306000000
H    -1.908000000    -4.149000000    -4.201000000
C    -0.170000000    -2.966000000    -3.916000000
C     0.582000000    -1.958000000    -4.506000000
H     0.113000000    -1.293000000    -5.227000000
C     0.433000000    -3.674000000    -2.884000000
C     1.735000000    -3.562000000    -2.571000000
H     2.218000000    -4.162000000    -1.803000000
C     2.429000000    -2.541000000    -3.205000000
O     3.611000000    -2.186000000    -2.644000000
C     3.718000000    -1.043000000    -1.777000000
C     4.535000000    -1.369000000    -0.441000000
C     4.853000000    -2.659000000    -0.130000000
H     4.625000000    -3.502000000    -0.778000000
C     4.845000000    -0.256000000     0.392000000
H     4.543000000     0.760000000     0.148000000
O     4.356000000     0.041000000    -2.563000000
H     2.700000000    -0.708000000    -1.529000000
C     1.895000000    -1.715000000    -4.201000000
C     2.670000000    -0.601000000    -4.871000000
H     2.302000000    -0.401000000    -5.880000000
H     3.712000000    -0.884000000    -5.035000000
C     2.527000000     0.685000000    -4.058000000
C     3.409000000     0.954000000    -2.988000000
C     3.266000000     2.167000000    -2.298000000
H     3.847000000     2.282000000    -1.386000000
C     2.171000000     2.980000000    -2.653000000
O     1.864000000     4.017000000    -1.839000000
C     0.784000000     3.834000000    -0.889000000
H     0.585000000     2.762000000    -0.744000000
C     1.170000000     4.450000000     0.509000000
C     0.256000000     5.030000000     1.413000000
H    -0.804000000     5.113000000     1.184000000
C     2.550000000     4.567000000     0.919000000
H     3.344000000     4.376000000     0.201000000
C     2.955000000     5.021000000     2.180000000
O     4.284000000     5.047000000     2.523000000
C     2.023000000     5.529000000     3.098000000
H     2.349000000     5.841000000     4.086000000
C     0.692000000     5.518000000     2.663000000
O    -0.257000000     5.908000000     3.600000000
C    -1.662000000     5.870000000     3.359000000
C    -2.431000000     4.727000000     3.457000000
H    -1.931000000     3.800000000     3.728000000
C    -2.284000000     7.047000000     2.895000000
H    -1.691000000     7.938000000     2.706000000
C    -3.687000000     7.142000000     2.773000000
H    -4.114000000     8.049000000     2.353000000
C    -4.472000000     6.034000000     3.031000000
H    -5.536000000     6.107000000     2.821000000
C    -3.823000000     4.773000000     3.306000000
O    -4.488000000     3.711000000     3.722000000
C    -4.728000000     2.485000000     3.132000000
C    -5.274000000     1.414000000     3.820000000
H    -5.496000000     1.537000000     4.877000000
C    -5.498000000     0.198000000     3.169000000
O    -6.015000000    -0.811000000     3.882000000
C    -5.622000000    -2.082000000     3.619000000
C    -4.317000000    -2.442000000     3.769000000
H    -3.630000000    -1.680000000     4.130000000
C    -6.584000000    -2.970000000     3.177000000
H    -7.649000000    -2.766000000     3.107000000
C    -6.163000000    -4.308000000     2.843000000
H    -6.807000000    -5.121000000     2.516000000
C    -4.834000000    -4.675000000     3.042000000
H    -4.535000000    -5.716000000     2.950000000
C    -3.885000000    -3.758000000     3.440000000
O    -2.565000000    -4.141000000     3.609000000
C    -1.630000000    -4.557000000     2.604000000
C    -0.549000000    -5.355000000     2.942000000
H    -0.347000000    -5.629000000     3.975000000
C     0.384000000    -5.505000000     1.954000000
O     1.539000000    -6.140000000     2.303000000
C     2.752000000    -6.189000000     1.596000000
C     3.595000000    -5.045000000     1.550000000
H     3.279000000    -4.081000000     1.940000000
C     3.219000000    -7.345000000     1.112000000
H     2.494000000    -8.153000000     1.060000000
C     4.544000000    -7.468000000     0.685000000
H     4.912000000    -8.454000000     0.412000000
C     5.397000000    -6.406000000     0.762000000
H     6.461000000    -6.452000000     0.545000000
C     4.945000000    -5.190000000     1.268000000
O     5.877000000    -4.126000000     1.464000000
C     5.564000000    -2.890000000     1.053000000
C     5.821000000    -1.772000000     1.829000000
H     6.375000000    -1.941000000     2.749000000
C     5.559000000    -0.477000000     1.551000000
O     5.851000000     0.552000000     2.461000000
C     6.009000000     1.850000000     2.092000000
C     7.255000000     2.301000000     1.456000000
H     8.019000000     1.588000000     1.156000000
C     7.402000000     3.660000000     1.130000000
H     8.358000000     4.062000000     0.806000000
C     6.343000000     4.557000000     1.334000000
H     6.440000000     5.607000000     1.074000000
C     5.171000000     4.134000000     2.028000000
C     5.084000000     2.787000000     2.440000000
H     4.340000000     2.422000000     3.144000000
C     1.466000000    -0.044000000     2.395000000
H     2.519000000    -0.306000000     2.463000000
C     0.883000000    -0.344000000     1.147000000
H     1.405000000    -1.040000000     0.496000000
C    -0.339000000     0.260000000     0.784000000
H    -0.732000000     0.154000000    -0.269000000
C    -0.988000000     1.152000000     1.596000000
H    -1.947000000     1.602000000     1.352000000
C    -0.398000000     1.366000000     2.853000000
H    -0.796000000     2.133000000     3.513000000
C     0.819000000     0.791000000     3.280000000
C     1.474000000     1.232000000     4.594000000
O     0.952000000     2.044000000     5.345000000
O     2.557000000     0.762000000     4.944000000
O     5.985000000    -2.344000000     6.301000000
H     5.095000000    -2.023000000     6.155000000
H     6.064000000    -2.406000000     7.253000000
O     3.493000000    -1.469000000     6.109000000
H     3.235000000    -0.591000000     5.828000000
H     3.277000000    -2.031000000     5.365000000
O     3.971000000     2.930000000     8.925000000
H     3.650000000     2.911000000     8.023000000
H     4.526000000     3.709000000     8.965000000
O     0.050000000     0.665000000     7.529000000
H     0.253000000     1.251000000     6.799000000
H    -0.571000000     0.036000000     7.164000000
O     2.460000000    -0.770000000     8.797000000
H     1.952000000    -0.020000000     8.488000000
H     2.939000000    -1.070000000     8.024000000
O     6.524000000     2.935000000     7.283000000
H     5.854000000     2.852000000     6.605000000
H     7.059000000     2.146000000     7.189000000
O    -2.487000000     2.879000000     6.911000000
H    -3.021000000     3.667000000     6.813000000
H    -1.622000000     3.205000000     7.161000000
O     2.985000000     3.488000000     6.451000000
H     3.747000000     3.172000000     5.965000000
H     2.288000000     2.871000000     6.230000000
O     1.778000000    -2.666000000     4.113000000
H     1.874000000    -1.768000000     3.795000000
H     0.854000000    -2.736000000     4.356000000
O    -0.887000000    -1.340000000     4.168000000
H    -1.349000000    -0.635000000     4.621000000
H    -0.531000000    -0.927000000     3.382000000
O    -0.119000000     4.468000000     6.590000000
H     0.417000000     3.834000000     6.115000000
H     0.491000000     5.166000000     6.830000000
O     5.126000000     0.507000000     9.155000000
H     4.377000000    -0.081000000     9.252000000
H     4.736000000     1.370000000     9.019000000
O    -2.178000000    -2.754000000     6.241000000
H    -1.925000000    -2.586000000     5.333000000
H    -2.224000000    -3.708000000     6.304000000
O     4.997000000     1.884000000     5.452000000
H     4.176000000     1.393000000     5.416000000
H     5.596000000     1.390000000     4.892000000
O    -2.070000000     0.735000000     5.542000000
H    -2.072000000     1.456000000     6.171000000
H    -2.935000000     0.335000000     5.633000000
O    -0.261000000     2.802000000     9.499000000
H     0.153000000     2.188000000     8.893000000
H     0.123000000     2.593000000    10.351000000
O     2.235000000    -5.057000000     5.547000000
H     1.974000000    -4.271000000     5.066000000
H     1.444000000    -5.324000000     6.015000000
O    -0.453000000    -3.167000000     8.487000000
H    -1.194000000    -3.054000000     9.082000000
H    -0.738000000    -2.761000000     7.668000000
O     1.917000000     6.164000000     7.555000000
H     2.422000000     6.628000000     6.887000000
H     2.227000000     5.260000000     7.505000000
