215
-1433.57303
C    -4.978000000    -1.371000000     1.157000000
H    -5.005000000    -2.236000000     0.499000000
C    -4.624000000    -0.124000000     0.607000000
C    -4.549000000     0.969000000     1.424000000
H    -4.286000000     1.956000000     1.053000000
C    -4.214000000    -0.074000000    -0.873000000
O    -4.549000000    -1.209000000    -1.544000000
H    -3.116000000    -0.106000000    -0.814000000
O    -4.635000000     1.125000000    -1.572000000
C    -3.739000000     1.721000000    -2.415000000
C    -3.143000000     2.854000000    -1.872000000
H    -3.556000000     3.391000000    -1.022000000
C    -1.914000000     3.252000000    -2.443000000
O    -1.299000000     4.324000000    -1.826000000
C    -1.452000000     2.702000000    -3.631000000
C    -0.330000000     3.371000000    -4.398000000
H    -0.514000000     3.316000000    -5.473000000
C     1.018000000     2.988000000    -3.900000000
C     1.526000000     1.798000000    -4.424000000
H     1.086000000     1.346000000    -5.309000000
H    -0.535000000     4.438000000    -4.287000000
C    -2.108000000     1.598000000    -4.180000000
H    -1.581000000     1.166000000    -5.027000000
C    -3.202000000     1.054000000    -3.561000000
C    -3.873000000    -0.187000000    -4.109000000
H    -3.924000000    -0.187000000    -5.200000000
H    -4.886000000    -0.082000000    -3.717000000
C    -3.237000000    -1.409000000    -3.539000000
C    -2.119000000    -2.070000000    -4.115000000
H    -1.599000000    -1.692000000    -4.991000000
C    -3.662000000    -1.922000000    -2.340000000
C    -3.077000000    -2.998000000    -1.712000000
H    -3.439000000    -3.327000000    -0.741000000
C    -2.025000000    -3.668000000    -2.322000000
O    -1.262000000    -4.553000000    -1.574000000
C    -0.064000000    -4.099000000    -0.895000000
C     0.068000000    -4.427000000     0.581000000
C     1.207000000    -4.220000000     1.334000000
H     2.137000000    -4.003000000     0.814000000
C    -1.033000000    -4.897000000     1.209000000
H    -1.924000000    -5.224000000     0.680000000
O     1.150000000    -4.405000000    -1.666000000
H    -0.093000000    -3.000000000    -0.863000000
C    -1.508000000    -3.157000000    -3.486000000
C    -0.211000000    -3.687000000    -4.179000000
H    -0.239000000    -3.590000000    -5.266000000
H    -0.094000000    -4.771000000    -4.126000000
C     1.044000000    -3.052000000    -3.613000000
C     1.603000000    -1.952000000    -4.290000000
H     1.150000000    -1.482000000    -5.159000000
C     1.672000000    -3.473000000    -2.438000000
C     2.841000000    -2.900000000    -1.997000000
H     3.277000000    -3.249000000    -1.065000000
C     3.364000000    -1.833000000    -2.640000000
O     4.342000000    -1.156000000    -2.029000000
C     3.942000000     0.003000000    -1.248000000
C     4.642000000     0.048000000     0.073000000
C     5.217000000    -1.120000000     0.658000000
H     5.276000000    -2.029000000     0.065000000
C     4.754000000     1.250000000     0.808000000
H     4.438000000     2.199000000     0.384000000
O     4.150000000     1.261000000    -1.992000000
H     2.899000000    -0.044000000    -0.901000000
C     2.761000000    -1.388000000    -3.794000000
C     3.248000000    -0.117000000    -4.443000000
H     2.970000000    -0.124000000    -5.499000000
H     4.329000000     0.022000000    -4.509000000
C     2.660000000     1.193000000    -3.897000000
C     3.110000000     1.718000000    -2.679000000
C     2.605000000     2.877000000    -2.152000000
H     3.037000000     3.343000000    -1.270000000
C     1.554000000     3.558000000    -2.738000000
O     1.025000000     4.470000000    -1.966000000
C    -0.069000000     4.107000000    -1.173000000
H    -0.042000000     3.034000000    -0.931000000
C     0.001000000     4.789000000     0.213000000
C    -1.109000000     4.962000000     0.963000000
H    -2.087000000     4.668000000     0.592000000
C     1.281000000     5.201000000     0.756000000
H     2.162000000     5.050000000     0.137000000
C     1.339000000     5.745000000     2.023000000
O     2.553000000     6.210000000     2.541000000
C     0.263000000     5.986000000     2.773000000
H     0.348000000     6.525000000     3.713000000
C    -0.920000000     5.447000000     2.306000000
O    -2.044000000     5.762000000     3.125000000
C    -3.292000000     5.223000000     2.907000000
C    -3.564000000     3.891000000     3.281000000
H    -2.766000000     3.244000000     3.637000000
C    -4.290000000     6.043000000     2.433000000
H    -4.008000000     7.058000000     2.163000000
C    -5.525000000     5.477000000     2.150000000
H    -6.279000000     6.074000000     1.644000000
C    -5.840000000     4.176000000     2.548000000
H    -6.829000000     3.740000000     2.430000000
C    -4.840000000     3.426000000     3.177000000
O    -5.095000000     2.095000000     3.502000000
C    -5.004000000     0.973000000     2.696000000
C    -5.474000000    -0.264000000     3.241000000
H    -5.694000000    -0.334000000     4.304000000
C    -5.490000000    -1.447000000     2.494000000
O    -5.876000000    -2.631000000     3.102000000
C    -5.295000000    -3.914000000     2.799000000
C    -3.967000000    -4.163000000     3.100000000
H    -3.315000000    -3.501000000     3.664000000
C    -6.069000000    -4.858000000     2.146000000
H    -7.044000000    -4.637000000     1.718000000
C    -5.645000000    -6.187000000     1.819000000
H    -6.291000000    -6.934000000     1.366000000
C    -4.328000000    -6.434000000     2.214000000
H    -3.907000000    -7.420000000     2.034000000
C    -3.493000000    -5.447000000     2.756000000
O    -2.215000000    -5.743000000     3.202000000
C    -1.076000000    -5.245000000     2.562000000
C     0.130000000    -5.038000000     3.291000000
H     0.138000000    -5.431000000     4.304000000
C     1.167000000    -4.389000000     2.708000000
O     2.392000000    -4.279000000     3.411000000
C     3.641000000    -4.299000000     2.819000000
C     4.541000000    -3.281000000     3.033000000
H     4.129000000    -2.415000000     3.545000000
C     4.129000000    -5.527000000     2.334000000
H     3.509000000    -6.417000000     2.270000000
C     5.518000000    -5.618000000     1.911000000
H     5.907000000    -6.567000000     1.551000000
C     6.309000000    -4.499000000     1.986000000
H     7.351000000    -4.493000000     1.678000000
C     5.865000000    -3.328000000     2.619000000
O     6.530000000    -2.169000000     2.364000000
C     5.939000000    -1.037000000     1.835000000
C     6.040000000     0.158000000     2.537000000
H     6.664000000     0.194000000     3.426000000
C     5.435000000     1.302000000     2.019000000
O     5.481000000     2.409000000     2.889000000
C     5.222000000     3.652000000     2.468000000
C     6.130000000     4.224000000     1.607000000
H     7.020000000     3.695000000     1.275000000
C     5.965000000     5.518000000     1.093000000
H     6.566000000     6.012000000     0.334000000
C     4.745000000     6.217000000     1.407000000
H     4.408000000     7.122000000     0.909000000
C     3.865000000     5.627000000     2.297000000
C     4.129000000     4.367000000     2.896000000
H     3.395000000     3.841000000     3.500000000
C     1.170000000    -0.519000000     2.361000000
H     1.824000000    -1.303000000     2.733000000
C     0.788000000    -0.588000000     1.004000000
H     0.995000000    -1.452000000     0.379000000
C    -0.054000000     0.393000000     0.518000000
H    -0.391000000     0.288000000    -0.498000000
C    -0.504000000     1.461000000     1.335000000
H    -1.192000000     2.190000000     0.915000000
C    -0.089000000     1.540000000     2.654000000
H    -0.418000000     2.351000000     3.298000000
C     0.766000000     0.509000000     3.208000000
C     1.397000000     0.710000000     4.601000000
O     1.107000000     1.699000000     5.206000000
O     1.984000000    -0.185000000     5.158000000
O     4.173000000    -0.302000000     9.778000000
H     4.088000000     0.140000000    10.623000000
H     3.617000000     0.206000000     9.186000000
O     4.522000000    -0.194000000     5.989000000
H     4.227000000     0.303000000     6.752000000
H     3.719000000    -0.390000000     5.506000000
O     0.731000000    -1.590000000    10.944000000
H    -0.018000000    -0.998000000    10.875000000
H     0.908000000    -1.858000000    10.043000000
O    -1.931000000     3.888000000     9.768000000
H    -1.132000000     3.613000000     9.318000000
H    -2.595000000     3.917000000     9.079000000
O     1.823000000     6.582000000     6.745000000
H     1.630000000     6.848000000     7.644000000
H     0.972000000     6.346000000     6.376000000
O    -0.704000000     6.046000000     5.853000000
H    -0.984000000     5.131000000     5.876000000
H    -1.482000000     6.540000000     6.114000000
O    -1.227000000     2.992000000     6.009000000
H    -0.413000000     2.529000000     5.810000000
H    -1.895000000     2.306000000     6.028000000
O     2.336000000     1.104000000     7.940000000
H     2.251000000     0.819000000     7.030000000
H     1.552000000     1.628000000     8.101000000
O     3.614000000     4.764000000     8.755000000
H     4.554000000     4.596000000     8.826000000
H     3.467000000     4.914000000     7.821000000
O     0.994000000    -2.521000000     5.496000000
H     1.400000000    -1.655000000     5.452000000
H     1.712000000    -3.132000000     5.331000000
O     5.385000000     2.934000000     6.452000000
H     4.491000000     3.276000000     6.477000000
H     5.442000000     2.473000000     5.615000000
O    -1.454000000    -1.575000000     4.507000000
H    -1.139000000    -1.297000000     3.647000000
H    -0.688000000    -1.964000000     4.929000000
O     0.482000000    -2.732000000     8.365000000
H     0.083000000    -3.593000000     8.484000000
H     0.533000000    -2.620000000     7.416000000
O     2.696000000     3.776000000     6.088000000
H     2.290000000     4.634000000     5.968000000
H     2.027000000     3.153000000     5.803000000
O    -1.390000000    -0.358000000     8.154000000
H    -1.420000000     0.011000000     9.036000000
H    -0.733000000    -1.052000000     8.206000000
O     1.031000000     3.157000000     9.506000000
H     1.792000000     3.440000000     8.998000000
H     1.371000000     3.019000000    10.390000000
O    -2.557000000     0.709000000     5.983000000
H    -2.527000000    -0.013000000     5.354000000
H    -1.810000000     0.554000000     6.561000000
O     7.377000000     0.108000000     6.481000000
H     7.589000000     0.203000000     7.410000000
H     6.420000000     0.106000000     6.453000000
O     5.766000000    -2.506000000     6.881000000
H     5.105000000    -3.156000000     6.644000000
H     5.367000000    -1.665000000     6.658000000
