215
-1466.02252
C    -5.295000000    -1.002000000     1.497000000
H    -5.228000000    -1.852000000     0.822000000
C    -4.905000000     0.235000000     1.052000000
C    -4.887000000     1.284000000     1.962000000
H    -4.365000000     2.210000000     1.737000000
C    -4.282000000     0.460000000    -0.265000000
O    -4.741000000    -0.643000000    -1.075000000
H    -3.192000000     0.437000000    -0.113000000
O    -4.618000000     1.771000000    -0.821000000
C    -3.629000000     2.384000000    -1.569000000
C    -2.819000000     3.275000000    -0.938000000
H    -2.931000000     3.722000000     0.046000000
C    -1.744000000     3.821000000    -1.633000000
O    -0.956000000     4.767000000    -1.008000000
C    -1.425000000     3.496000000    -2.981000000
C    -0.298000000     4.166000000    -3.787000000
H    -0.502000000     4.234000000    -4.857000000
C     0.990000000     3.508000000    -3.450000000
C     1.415000000     2.346000000    -4.139000000
H     0.845000000     1.850000000    -4.921000000
H    -0.195000000     5.216000000    -3.506000000
C    -2.267000000     2.633000000    -3.655000000
H    -2.053000000     2.169000000    -4.614000000
C    -3.282000000     2.052000000    -2.881000000
C    -4.047000000     0.942000000    -3.595000000
H    -4.060000000     1.118000000    -4.673000000
H    -5.102000000     0.845000000    -3.331000000
C    -3.446000000    -0.498000000    -3.211000000
C    -2.548000000    -1.071000000    -4.114000000
H    -2.161000000    -0.539000000    -4.979000000
C    -3.957000000    -1.160000000    -2.108000000
C    -3.446000000    -2.438000000    -1.920000000
H    -3.751000000    -2.987000000    -1.032000000
C    -2.394000000    -2.961000000    -2.671000000
O    -1.750000000    -4.054000000    -2.300000000
C    -0.434000000    -3.877000000    -1.765000000
C    -0.344000000    -4.623000000    -0.405000000
C     0.893000000    -5.223000000    -0.093000000
H     1.652000000    -5.220000000    -0.871000000
C    -1.338000000    -4.596000000     0.540000000
H    -2.282000000    -4.144000000     0.245000000
O     0.560000000    -4.263000000    -2.691000000
H    -0.349000000    -2.826000000    -1.450000000
C    -1.929000000    -2.264000000    -3.792000000
C    -0.867000000    -2.878000000    -4.712000000
H    -1.155000000    -2.613000000    -5.731000000
H    -1.060000000    -3.944000000    -4.574000000
C     0.564000000    -2.438000000    -4.269000000
C     1.220000000    -1.270000000    -4.702000000
H     0.758000000    -0.626000000    -5.445000000
C     1.217000000    -3.217000000    -3.277000000
C     2.368000000    -2.709000000    -2.641000000
H     2.821000000    -3.335000000    -1.877000000
C     2.953000000    -1.535000000    -3.118000000
O     4.055000000    -1.013000000    -2.483000000
C     3.773000000    -0.067000000    -1.463000000
C     4.461000000    -0.373000000    -0.099000000
C     4.802000000    -1.693000000     0.337000000
H     4.551000000    -2.462000000    -0.390000000
C     4.732000000     0.704000000     0.786000000
H     4.499000000     1.729000000     0.508000000
O     4.206000000     1.181000000    -1.974000000
H     2.692000000     0.068000000    -1.304000000
C     2.421000000    -0.799000000    -4.141000000
C     3.071000000     0.464000000    -4.708000000
H     2.909000000     0.672000000    -5.767000000
H     4.158000000     0.538000000    -4.626000000
C     2.638000000     1.691000000    -3.810000000
C     3.271000000     2.039000000    -2.617000000
C     2.743000000     3.129000000    -1.877000000
H     3.127000000     3.422000000    -0.904000000
C     1.736000000     3.944000000    -2.342000000
O     1.290000000     4.985000000    -1.501000000
C     0.377000000     4.436000000    -0.528000000
H     0.484000000     3.346000000    -0.630000000
C     0.587000000     4.824000000     0.931000000
C    -0.419000000     4.530000000     1.884000000
H    -1.365000000     4.178000000     1.480000000
C     1.854000000     5.235000000     1.476000000
H     2.683000000     5.445000000     0.804000000
C     2.121000000     5.247000000     2.834000000
O     3.373000000     5.554000000     3.309000000
C     1.059000000     4.980000000     3.740000000
H     1.206000000     5.015000000     4.816000000
C    -0.211000000     4.626000000     3.269000000
O    -1.138000000     4.209000000     4.181000000
C    -2.474000000     4.393000000     3.998000000
C    -3.310000000     3.333000000     4.156000000
H    -2.789000000     2.420000000     4.431000000
C    -3.014000000     5.632000000     3.604000000
H    -2.351000000     6.475000000     3.428000000
C    -4.375000000     5.752000000     3.358000000
H    -4.794000000     6.749000000     3.251000000
C    -5.218000000     4.684000000     3.569000000
H    -6.297000000     4.776000000     3.476000000
C    -4.670000000     3.408000000     3.935000000
O    -5.485000000     2.270000000     4.115000000
C    -5.447000000     1.188000000     3.269000000
C    -5.963000000    -0.083000000     3.681000000
H    -6.403000000    -0.254000000     4.660000000
C    -5.808000000    -1.184000000     2.799000000
O    -6.127000000    -2.516000000     3.181000000
C    -5.476000000    -3.647000000     2.722000000
C    -4.074000000    -3.733000000     2.947000000
H    -3.573000000    -2.931000000     3.482000000
C    -6.174000000    -4.706000000     2.022000000
H    -7.236000000    -4.736000000     1.793000000
C    -5.468000000    -5.883000000     1.608000000
H    -5.927000000    -6.769000000     1.178000000
C    -4.109000000    -5.961000000     1.857000000
H    -3.516000000    -6.793000000     1.488000000
C    -3.421000000    -4.867000000     2.512000000
O    -2.083000000    -4.957000000     2.819000000
C    -1.152000000    -5.159000000     1.799000000
C     0.096000000    -5.789000000     2.055000000
H     0.311000000    -5.936000000     3.110000000
C     1.078000000    -5.907000000     1.079000000
O     2.277000000    -6.616000000     1.308000000
C     3.567000000    -6.094000000     0.969000000
C     3.940000000    -4.868000000     1.584000000
H     3.272000000    -4.356000000     2.272000000
C     4.449000000    -6.770000000     0.036000000
H     4.092000000    -7.631000000    -0.523000000
C     5.671000000    -6.144000000    -0.284000000
H     6.258000000    -6.632000000    -1.058000000
C     6.082000000    -4.991000000     0.406000000
H     7.068000000    -4.566000000     0.232000000
C     5.189000000    -4.409000000     1.364000000
O     5.528000000    -3.289000000     2.130000000
C     5.287000000    -1.961000000     1.658000000
C     5.513000000    -0.875000000     2.453000000
H     5.905000000    -0.950000000     3.464000000
C     5.274000000     0.407000000     2.000000000
O     5.557000000     1.354000000     2.945000000
C     5.554000000     2.740000000     2.745000000
C     6.525000000     3.289000000     1.908000000
H     7.253000000     2.569000000     1.543000000
C     6.441000000     4.607000000     1.500000000
H     7.159000000     4.993000000     0.781000000
C     5.394000000     5.354000000     2.025000000
H     5.347000000     6.374000000     1.653000000
C     4.397000000     4.815000000     2.875000000
C     4.521000000     3.485000000     3.308000000
H     3.707000000     2.953000000     3.795000000
C     1.596000000    -1.027000000     1.549000000
H     2.177000000    -1.932000000     1.708000000
C     0.890000000    -0.959000000     0.306000000
H     1.025000000    -1.846000000    -0.308000000
C     0.181000000     0.203000000     0.058000000
H    -0.348000000     0.302000000    -0.902000000
C     0.065000000     1.203000000     1.048000000
H    -0.616000000     2.049000000     0.992000000
C     0.805000000     1.098000000     2.247000000
H     0.594000000     1.856000000     2.997000000
C     1.560000000    -0.046000000     2.502000000
C     2.261000000    -0.269000000     3.787000000
O     2.321000000     0.617000000     4.676000000
O     2.649000000    -1.360000000     4.075000000
O     3.696000000    -2.851000000     8.019000000
H     3.070000000    -2.172000000     7.769000000
H     4.191000000    -3.027000000     7.219000000
O     4.770000000    -1.398000000     5.744000000
H     5.409000000    -0.824000000     5.322000000
H     3.965000000    -1.270000000     5.242000000
O    -3.623000000    -0.139000000     6.270000000
H    -2.886000000     0.114000000     5.713000000
H    -3.601000000    -1.096000000     6.275000000
O     0.320000000    -2.002000000     9.720000000
H    -0.506000000    -2.119000000    10.190000000
H     0.109000000    -2.205000000     8.809000000
O     2.550000000     1.182000000     8.643000000
H     2.527000000     0.743000000     9.493000000
H     2.205000000     0.533000000     8.029000000
O     5.218000000    -4.499000000     4.773000000
H     5.624000000    -4.017000000     4.052000000
H     5.704000000    -4.222000000     5.550000000
O    -0.230000000     4.095000000     7.015000000
H     0.039000000     3.281000000     6.588000000
H    -0.648000000     4.603000000     6.320000000
O     0.436000000     1.789000000     5.794000000
H     1.135000000     1.331000000     5.328000000
H    -0.336000000     1.236000000     5.673000000
O     2.161000000    -1.006000000     7.061000000
H     1.316000000    -1.448000000     6.975000000
H     2.195000000    -0.406000000     6.317000000
O    -0.176000000    -2.498000000     7.097000000
H    -1.051000000    -2.254000000     6.794000000
H     0.071000000    -3.239000000     6.545000000
O     5.032000000     4.692000000     6.276000000
H     4.725000000     3.826000000     6.545000000
H     5.773000000     4.874000000     6.854000000
O     2.494000000    -3.982000000     4.741000000
H     2.591000000    -3.030000000     4.755000000
H     3.367000000    -4.315000000     4.947000000
O     6.520000000     0.798000000     6.066000000
H     5.738000000     1.174000000     6.471000000
H     6.915000000     1.526000000     5.587000000
O    -1.598000000    -1.749000000     2.069000000
H    -1.172000000    -2.527000000     2.426000000
H    -1.004000000    -1.443000000     1.384000000
O     3.966000000     1.794000000     6.398000000
H     3.401000000     1.770000000     7.171000000
H     3.391000000     1.549000000     5.674000000
O    -0.229000000    -3.088000000     4.302000000
H    -0.353000000    -4.014000000     4.513000000
H     0.721000000    -2.974000000     4.273000000
O     7.247000000     3.425000000     5.159000000
H     6.563000000     3.888000000     4.675000000
H     7.891000000     4.100000000     5.369000000
O    -1.330000000    -0.309000000     4.394000000
H    -1.655000000    -0.483000000     3.511000000
H    -0.755000000    -1.049000000     4.588000000
O     6.888000000    -3.063000000     7.145000000
H     7.166000000    -3.286000000     6.257000000
H     6.297000000    -2.320000000     7.032000000
