215
-1490.64916
C    -4.733000000    -1.019000000     2.146000000
H    -4.465000000    -1.927000000     1.612000000
C    -4.733000000     0.237000000     1.492000000
C    -4.790000000     1.395000000     2.216000000
H    -4.643000000     2.334000000     1.688000000
C    -4.269000000     0.285000000     0.040000000
O    -5.056000000    -0.660000000    -0.742000000
H    -3.193000000     0.058000000     0.019000000
O    -4.520000000     1.648000000    -0.474000000
C    -3.678000000     2.249000000    -1.342000000
C    -2.861000000     3.235000000    -0.795000000
H    -3.072000000     3.580000000     0.214000000
C    -1.926000000     3.806000000    -1.579000000
O    -0.987000000     4.658000000    -0.945000000
C    -1.705000000     3.430000000    -2.901000000
C    -0.547000000     4.076000000    -3.618000000
H    -0.902000000     4.090000000    -4.650000000
C     0.771000000     3.264000000    -3.551000000
C     1.047000000     2.152000000    -4.314000000
H     0.429000000     1.894000000    -5.170000000
H    -0.454000000     5.152000000    -3.451000000
C    -2.459000000     2.375000000    -3.442000000
H    -2.244000000     2.083000000    -4.467000000
C    -3.495000000     1.785000000    -2.653000000
C    -4.524000000     0.807000000    -3.209000000
H    -4.560000000     0.871000000    -4.298000000
H    -5.503000000     0.938000000    -2.743000000
C    -4.012000000    -0.594000000    -2.916000000
C    -3.161000000    -1.215000000    -3.867000000
H    -2.930000000    -0.718000000    -4.806000000
C    -4.284000000    -1.260000000    -1.725000000
C    -3.700000000    -2.472000000    -1.446000000
H    -3.901000000    -3.017000000    -0.527000000
C    -2.746000000    -3.043000000    -2.319000000
O    -2.035000000    -4.219000000    -1.877000000
C    -0.732000000    -3.893000000    -1.390000000
C    -0.412000000    -4.597000000    -0.076000000
C     0.924000000    -4.564000000     0.390000000
H     1.716000000    -4.273000000    -0.296000000
C    -1.431000000    -4.968000000     0.808000000
H    -2.442000000    -4.985000000     0.410000000
O     0.219000000    -4.247000000    -2.384000000
H    -0.702000000    -2.802000000    -1.252000000
C    -2.450000000    -2.379000000    -3.484000000
C    -1.400000000    -2.886000000    -4.478000000
H    -1.544000000    -2.558000000    -5.510000000
H    -1.528000000    -3.967000000    -4.396000000
C    -0.023000000    -2.506000000    -4.090000000
C     0.513000000    -1.299000000    -4.589000000
H    -0.034000000    -0.607000000    -5.224000000
C     0.753000000    -3.287000000    -3.181000000
C     2.007000000    -2.887000000    -2.822000000
H     2.632000000    -3.463000000    -2.144000000
C     2.576000000    -1.747000000    -3.408000000
O     3.813000000    -1.339000000    -3.081000000
C     3.827000000    -0.258000000    -2.069000000
C     4.837000000    -0.536000000    -1.038000000
C     5.427000000    -1.788000000    -0.825000000
H     5.220000000    -2.615000000    -1.500000000
C     5.145000000     0.501000000    -0.071000000
H     4.710000000     1.493000000    -0.162000000
O     4.205000000     0.999000000    -2.687000000
H     2.841000000    -0.194000000    -1.585000000
C     1.892000000    -0.990000000    -4.358000000
C     2.544000000     0.231000000    -5.017000000
H     2.291000000     0.390000000    -6.067000000
H     3.629000000     0.120000000    -5.067000000
C     2.261000000     1.437000000    -4.127000000
C     3.146000000     1.808000000    -3.064000000
C     2.788000000     2.876000000    -2.272000000
H     3.329000000     3.183000000    -1.380000000
C     1.640000000     3.587000000    -2.481000000
O     1.273000000     4.534000000    -1.509000000
C     0.306000000     4.169000000    -0.613000000
H     0.264000000     3.070000000    -0.597000000
C     0.663000000     4.457000000     0.826000000
C    -0.335000000     4.435000000     1.762000000
H    -1.355000000     4.150000000     1.518000000
C     1.978000000     4.738000000     1.345000000
H     2.829000000     4.871000000     0.681000000
C     2.223000000     4.963000000     2.699000000
O     3.582000000     5.048000000     3.114000000
C     1.213000000     5.048000000     3.625000000
H     1.401000000     5.289000000     4.668000000
C    -0.092000000     4.875000000     3.122000000
O    -1.152000000     4.921000000     3.991000000
C    -2.524000000     4.845000000     3.680000000
C    -3.255000000     3.821000000     4.163000000
H    -2.725000000     3.090000000     4.768000000
C    -3.008000000     5.793000000     2.796000000
H    -2.295000000     6.512000000     2.401000000
C    -4.382000000     5.727000000     2.434000000
H    -4.810000000     6.459000000     1.754000000
C    -5.141000000     4.681000000     3.017000000
H    -6.178000000     4.545000000     2.719000000
C    -4.598000000     3.653000000     3.786000000
O    -5.346000000     2.583000000     4.180000000
C    -5.209000000     1.413000000     3.570000000
C    -5.459000000     0.142000000     4.232000000
H    -5.801000000     0.090000000     5.263000000
C    -5.146000000    -1.026000000     3.534000000
O    -5.346000000    -2.222000000     4.204000000
C    -5.048000000    -3.480000000     3.634000000
C    -3.717000000    -3.827000000     3.566000000
H    -2.877000000    -3.275000000     3.980000000
C    -6.016000000    -4.217000000     2.991000000
H    -7.040000000    -3.856000000     2.956000000
C    -5.652000000    -5.502000000     2.451000000
H    -6.424000000    -6.160000000     2.059000000
C    -4.344000000    -5.846000000     2.417000000
H    -4.065000000    -6.826000000     2.038000000
C    -3.388000000    -5.078000000     3.020000000
O    -2.106000000    -5.523000000     3.017000000
C    -1.141000000    -5.144000000     2.180000000
C     0.187000000    -5.064000000     2.607000000
H     0.411000000    -5.154000000     3.667000000
C     1.218000000    -4.842000000     1.727000000
O     2.494000000    -4.767000000     2.269000000
C     3.654000000    -5.032000000     1.526000000
C     4.464000000    -3.940000000     1.307000000
H     4.209000000    -2.943000000     1.656000000
C     4.022000000    -6.348000000     1.137000000
H     3.438000000    -7.228000000     1.394000000
C     5.277000000    -6.582000000     0.591000000
H     5.630000000    -7.572000000     0.311000000
C     6.147000000    -5.503000000     0.452000000
H     7.142000000    -5.674000000     0.050000000
C     5.752000000    -4.217000000     0.795000000
O     6.639000000    -3.223000000     0.586000000
C     6.232000000    -1.974000000     0.248000000
C     6.608000000    -0.952000000     1.147000000
H     7.145000000    -1.059000000     2.085000000
C     6.050000000     0.286000000     0.987000000
O     6.294000000     1.255000000     1.944000000
C     6.029000000     2.571000000     1.741000000
C     6.841000000     3.464000000     1.044000000
H     7.716000000     3.187000000     0.461000000
C     6.581000000     4.863000000     1.107000000
H     7.119000000     5.476000000     0.389000000
C     5.473000000     5.349000000     1.753000000
H     5.192000000     6.399000000     1.773000000
C     4.608000000     4.464000000     2.423000000
C     4.932000000     3.082000000     2.517000000
H     4.329000000     2.453000000     3.167000000
C     1.427000000    -0.601000000     1.240000000
H     2.338000000    -1.194000000     1.229000000
C     0.538000000    -0.701000000     0.207000000
H     0.626000000    -1.374000000    -0.642000000
C    -0.462000000     0.279000000     0.041000000
H    -1.141000000     0.311000000    -0.814000000
C    -0.663000000     1.218000000     1.094000000
H    -1.496000000     1.917000000     1.069000000
C     0.160000000     1.223000000     2.206000000
H     0.068000000     1.962000000     2.998000000
C     1.262000000     0.331000000     2.259000000
C     2.243000000     0.385000000     3.451000000
O     2.044000000     1.149000000     4.438000000
O     3.183000000    -0.379000000     3.525000000
O     2.140000000     3.764000000     9.239000000
H     3.012000000     3.543000000     8.911000000
H     1.633000000     3.965000000     8.453000000
O     1.349000000    -1.910000000     8.989000000
H     1.036000000    -1.005000000     8.992000000
H     1.545000000    -2.092000000     8.070000000
O     5.485000000     0.448000000     5.219000000
H     5.455000000     1.236000000     5.762000000
H     4.624000000     0.411000000     4.803000000
O    -0.941000000    -0.271000000     8.515000000
H    -0.711000000     0.431000000     7.907000000
H    -1.289000000    -0.967000000     7.957000000
O     5.014000000    -0.328000000     8.210000000
H     4.897000000     0.618000000     8.124000000
H     4.263000000    -0.705000000     7.752000000
O     0.449000000     3.582000000     6.980000000
H     0.503000000     2.627000000     6.952000000
H    -0.490000000     3.770000000     6.946000000
O     4.992000000    -2.435000000     4.363000000
H     4.423000000    -1.821000000     3.899000000
H     5.755000000    -1.912000000     4.612000000
O     0.004000000     0.821000000     6.253000000
H     0.848000000     0.820000000     5.802000000
H    -0.644000000     0.845000000     5.548000000
O     5.825000000    -4.863000000     4.894000000
H     6.596000000    -4.372000000     5.178000000
H     5.284000000    -4.217000000     4.439000000
O     3.050000000    -1.106000000     6.423000000
H     3.891000000    -1.317000000     6.016000000
H     2.668000000    -0.441000000     5.851000000
O    -2.770000000    -1.853000000     6.563000000
H    -3.130000000    -1.177000000     5.989000000
H    -3.539000000    -2.270000000     6.953000000
O     2.445000000    -3.688000000     5.453000000
H     2.326000000    -2.811000000     5.819000000
H     2.956000000    -3.547000000     4.655000000
O     8.313000000    -0.436000000     5.384000000
H     7.595000000     0.187000000     5.273000000
H     9.016000000     0.076000000     5.785000000
O    -0.548000000    -1.895000000     3.639000000
H     0.264000000    -2.141000000     4.082000000
H    -0.342000000    -1.965000000     2.707000000
O     4.454000000    -4.685000000     7.570000000
H     3.893000000    -4.614000000     6.798000000
H     5.031000000    -3.923000000     7.517000000
O     3.008000000     3.104000000     6.088000000
H     2.200000000     3.613000000     6.152000000
H     2.810000000     2.420000000     5.449000000
O    -0.201000000    -2.950000000     6.390000000
H    -0.852000000    -2.297000000     6.133000000
H    -0.712000000    -3.647000000     6.802000000
O    -1.909000000     0.265000000     4.242000000
H    -1.568000000    -0.507000000     3.791000000
H    -2.471000000     0.692000000     3.596000000
O     5.136000000     2.396000000     7.420000000
H     5.781000000     3.103000000     7.416000000
H     4.362000000     2.775000000     7.003000000
