215
-1472.73835
C     0.615000000     2.678000000    -4.700000000
H     0.359000000     1.722000000    -5.149000000
C     1.614000000     2.764000000    -3.709000000
C     1.614000000     3.894000000    -2.900000000
H     2.314000000     3.843000000    -2.071000000
C     2.411000000     1.479000000    -3.357000000
O     2.491000000     0.521000000    -4.431000000
H     1.803000000     1.044000000    -2.550000000
O     3.666000000     1.775000000    -2.797000000
C     4.060000000     1.029000000    -1.702000000
C     4.028000000     1.748000000    -0.537000000
H     3.652000000     2.768000000    -0.533000000
C     4.459000000     1.134000000     0.675000000
O     4.247000000     1.843000000     1.855000000
C     4.903000000    -0.183000000     0.594000000
C     5.212000000    -0.926000000     1.924000000
H     5.850000000    -1.760000000     1.625000000
C     3.953000000    -1.499000000     2.569000000
C     3.584000000    -2.806000000     2.284000000
H     4.243000000    -3.341000000     1.606000000
H     5.783000000    -0.310000000     2.622000000
C     5.044000000    -0.897000000    -0.595000000
H     5.359000000    -1.937000000    -0.631000000
C     4.535000000    -0.287000000    -1.719000000
C     4.594000000    -1.076000000    -3.073000000
H     5.363000000    -1.847000000    -2.989000000
H     5.065000000    -0.455000000    -3.837000000
C     3.174000000    -1.600000000    -3.397000000
C     2.827000000    -2.970000000    -3.148000000
H     3.530000000    -3.700000000    -2.754000000
C     2.275000000    -0.817000000    -4.162000000
C     0.961000000    -1.317000000    -4.409000000
H     0.223000000    -0.698000000    -4.914000000
C     0.570000000    -2.542000000    -3.848000000
O    -0.798000000    -2.860000000    -3.914000000
C    -1.606000000    -2.804000000    -2.677000000
C    -2.897000000    -2.118000000    -2.972000000
C    -4.065000000    -2.539000000    -2.250000000
H    -3.983000000    -3.299000000    -1.477000000
C    -3.098000000    -1.074000000    -3.895000000
H    -2.243000000    -0.686000000    -4.443000000
O    -1.727000000    -4.188000000    -2.153000000
H    -0.979000000    -2.184000000    -2.020000000
C     1.493000000    -3.383000000    -3.298000000
C     1.119000000    -4.734000000    -2.768000000
H     1.921000000    -5.473000000    -2.813000000
H     0.437000000    -5.097000000    -3.540000000
C     0.508000000    -4.764000000    -1.381000000
C     1.383000000    -4.750000000    -0.336000000
H     2.439000000    -4.964000000    -0.478000000
C    -0.856000000    -4.557000000    -1.152000000
C    -1.342000000    -4.366000000     0.117000000
H    -2.385000000    -4.061000000     0.155000000
C    -0.457000000    -4.427000000     1.205000000
O    -1.069000000    -4.133000000     2.466000000
C    -0.761000000    -2.842000000     2.867000000
C    -1.992000000    -2.111000000     3.454000000
C    -3.261000000    -2.551000000     3.080000000
H    -3.343000000    -3.265000000     2.264000000
C    -1.835000000    -1.145000000     4.422000000
H    -0.864000000    -0.816000000     4.784000000
O     0.275000000    -2.930000000     3.881000000
H    -0.480000000    -2.340000000     1.930000000
C     0.894000000    -4.589000000     1.017000000
C     1.873000000    -4.644000000     2.179000000
H     2.678000000    -5.245000000     1.752000000
H     1.511000000    -5.252000000     3.011000000
C     2.312000000    -3.260000000     2.579000000
C     1.513000000    -2.504000000     3.433000000
C     1.920000000    -1.287000000     3.888000000
H     1.246000000    -0.734000000     4.537000000
C     3.134000000    -0.771000000     3.449000000
O     3.405000000     0.569000000     3.603000000
C     3.042000000     1.429000000     2.576000000
H     2.326000000     0.935000000     1.902000000
C     2.427000000     2.659000000     3.191000000
C     2.072000000     3.733000000     2.321000000
H     2.410000000     3.768000000     1.288000000
C     1.858000000     2.639000000     4.458000000
H     2.082000000     1.790000000     5.099000000
C     1.143000000     3.704000000     4.962000000
O     0.576000000     3.740000000     6.215000000
C     1.063000000     4.862000000     4.149000000
H     0.599000000     5.794000000     4.461000000
C     1.402000000     4.855000000     2.808000000
O     1.338000000     6.054000000     2.152000000
C     1.974000000     6.257000000     0.893000000
C     1.200000000     6.181000000    -0.214000000
H     0.173000000     5.826000000    -0.205000000
C     3.332000000     6.640000000     0.840000000
H     3.934000000     6.736000000     1.740000000
C     3.880000000     6.943000000    -0.386000000
H     4.905000000     7.305000000    -0.405000000
C     3.094000000     6.936000000    -1.540000000
H     3.355000000     7.200000000    -2.562000000
C     1.801000000     6.469000000    -1.416000000
O     1.100000000     6.345000000    -2.622000000
C     0.943000000     5.078000000    -3.240000000
C     0.020000000     5.036000000    -4.297000000
H    -0.429000000     5.948000000    -4.682000000
C    -0.150000000     3.791000000    -4.963000000
O    -1.097000000     3.806000000    -5.945000000
C    -1.920000000     2.731000000    -6.270000000
C    -2.799000000     2.121000000    -5.262000000
H    -2.940000000     2.526000000    -4.263000000
C    -2.073000000     2.315000000    -7.616000000
H    -1.454000000     2.840000000    -8.339000000
C    -2.897000000     1.291000000    -7.992000000
H    -2.655000000     0.857000000    -8.959000000
C    -3.649000000     0.666000000    -7.042000000
H    -4.401000000    -0.023000000    -7.417000000
C    -3.656000000     1.112000000    -5.758000000
O    -4.534000000     0.630000000    -4.784000000
C    -4.328000000    -0.548000000    -4.119000000
C    -5.430000000    -0.887000000    -3.312000000
H    -6.333000000    -0.287000000    -3.401000000
C    -5.287000000    -1.837000000    -2.297000000
O    -6.448000000    -2.132000000    -1.522000000
C    -6.306000000    -2.797000000    -0.329000000
C    -6.137000000    -2.132000000     0.837000000
H    -6.052000000    -1.051000000     0.764000000
C    -6.466000000    -4.211000000    -0.280000000
H    -6.547000000    -4.798000000    -1.192000000
C    -6.308000000    -4.916000000     0.947000000
H    -6.304000000    -6.002000000     0.998000000
C    -6.069000000    -4.174000000     2.115000000
H    -6.025000000    -4.688000000     3.072000000
C    -5.879000000    -2.823000000     2.035000000
O    -5.631000000    -2.227000000     3.185000000
C    -4.376000000    -1.882000000     3.542000000
C    -4.202000000    -0.905000000     4.535000000
H    -5.046000000    -0.485000000     5.077000000
C    -2.981000000    -0.597000000     5.044000000
O    -2.955000000     0.441000000     5.985000000
C    -1.843000000     0.953000000     6.637000000
C    -1.352000000     0.424000000     7.864000000
H    -1.906000000    -0.415000000     8.278000000
C    -0.213000000     0.960000000     8.539000000
H     0.056000000     0.564000000     9.515000000
C     0.364000000     2.084000000     7.936000000
H     1.253000000     2.481000000     8.419000000
C    -0.088000000     2.629000000     6.691000000
C    -1.238000000     2.101000000     6.066000000
H    -1.760000000     2.489000000     5.194000000
C    -2.516000000     0.626000000    -0.624000000
H    -3.553000000     0.394000000    -0.854000000
C    -1.748000000    -0.371000000    -0.085000000
H    -2.237000000    -1.332000000     0.049000000
C    -0.354000000    -0.206000000     0.130000000
H     0.248000000    -1.011000000     0.562000000
C     0.180000000     1.064000000    -0.071000000
H     1.182000000     1.382000000     0.203000000
C    -0.549000000     2.029000000    -0.803000000
H    -0.171000000     2.986000000    -1.152000000
C    -1.919000000     1.856000000    -1.001000000
C    -2.792000000     2.968000000    -1.495000000
O    -2.346000000     4.070000000    -1.754000000
O    -3.995000000     2.758000000    -1.550000000
O    -4.935000000     1.742000000     1.576000000
H    -5.115000000     1.354000000     0.720000000
H    -4.015000000     2.003000000     1.533000000
O    -1.024000000     7.949000000    -2.589000000
H    -1.230000000     8.073000000    -3.516000000
H    -0.249000000     7.389000000    -2.589000000
O    -3.813000000     7.001000000     3.212000000
H    -2.868000000     6.881000000     3.114000000
H    -4.120000000     7.216000000     2.331000000
O    -3.280000000     5.569000000    -6.762000000
H    -2.445000000     5.114000000    -6.650000000
H    -3.606000000     5.267000000    -7.610000000
O    -3.693000000     5.515000000    -3.613000000
H    -3.234000000     4.900000000    -3.040000000
H    -3.251000000     5.430000000    -4.458000000
O    -8.595000000     4.198000000    -4.504000000
H    -8.553000000     5.007000000    -5.014000000
H    -7.681000000     3.990000000    -4.310000000
O    -1.976000000     3.164000000     2.675000000
H    -2.374000000     3.805000000     2.085000000
H    -1.272000000     2.770000000     2.160000000
O    -3.818000000     7.497000000    -1.612000000
H    -2.879000000     7.625000000    -1.750000000
H    -4.039000000     6.741000000    -2.155000000
O    -1.293000000     6.773000000     1.837000000
H    -0.601000000     6.330000000     2.328000000
H    -0.926000000     7.632000000     1.628000000
O    -5.773000000     6.759000000    -5.898000000
H    -5.945000000     6.609000000    -4.968000000
H    -4.844000000     6.556000000    -6.006000000
O    -7.271000000     3.904000000     0.452000000
H    -8.141000000     3.696000000     0.111000000
H    -7.420000000     4.126000000     1.371000000
O    -6.488000000     1.526000000    -0.871000000
H    -6.729000000     2.297000000    -0.357000000
H    -5.709000000     1.797000000    -1.358000000
O    -7.723000000     1.519000000    -5.332000000
H    -7.867000000     2.393000000    -4.970000000
H    -6.773000000     1.452000000    -5.425000000
O    -5.364000000     5.105000000    -1.039000000
H    -4.572000000     4.598000000    -1.221000000
H    -5.998000000     4.457000000    -0.733000000
O    -6.043000000     3.453000000    -4.015000000
H    -5.597000000     3.852000000    -3.268000000
H    -5.787000000     2.531000000    -3.982000000
O    -2.634000000     4.793000000     0.733000000
H    -2.282000000     5.632000000     1.032000000
H    -2.345000000     4.723000000    -0.177000000
O    -6.394000000     1.579000000     3.831000000
H    -5.960000000     1.505000000     2.981000000
H    -5.842000000     2.181000000     4.330000000
O    -4.876000000     7.254000000     0.826000000
H    -5.576000000     6.634000000     0.619000000
H    -4.382000000     7.338000000     0.011000000
O    -7.149000000     6.682000000    -3.082000000
H    -6.857000000     6.077000000    -2.401000000
H    -8.103000000     6.689000000    -3.004000000
