215
-1402.84283
C    -4.750000000    -0.952000000     2.262000000
H    -4.925000000    -1.855000000     1.683000000
C    -4.493000000     0.207000000     1.546000000
C    -4.167000000     1.367000000     2.276000000
H    -3.805000000     2.238000000     1.736000000
C    -4.215000000     0.242000000     0.055000000
O    -4.710000000    -0.835000000    -0.632000000
H    -3.121000000     0.222000000    -0.056000000
O    -4.727000000     1.447000000    -0.544000000
C    -4.007000000     2.080000000    -1.540000000
C    -3.199000000     3.117000000    -1.195000000
H    -3.175000000     3.432000000    -0.155000000
C    -2.233000000     3.649000000    -2.041000000
O    -1.354000000     4.583000000    -1.481000000
C    -2.095000000     3.086000000    -3.351000000
C    -0.949000000     3.620000000    -4.219000000
H    -1.246000000     3.499000000    -5.263000000
C     0.359000000     2.896000000    -3.890000000
C     0.734000000     1.643000000    -4.464000000
H    -0.022000000     1.087000000    -5.012000000
H    -0.776000000     4.684000000    -4.045000000
C    -2.834000000     1.977000000    -3.655000000
H    -2.700000000     1.600000000    -4.666000000
C    -3.808000000     1.414000000    -2.831000000
C    -4.477000000     0.171000000    -3.316000000
H    -4.572000000     0.255000000    -4.401000000
H    -5.545000000     0.103000000    -3.098000000
C    -3.879000000    -1.211000000    -2.860000000
C    -3.085000000    -1.974000000    -3.773000000
H    -2.880000000    -1.473000000    -4.715000000
C    -3.964000000    -1.541000000    -1.524000000
C    -3.310000000    -2.644000000    -1.028000000
H    -3.428000000    -3.051000000    -0.027000000
C    -2.585000000    -3.451000000    -1.926000000
O    -1.920000000    -4.527000000    -1.386000000
C    -0.667000000    -4.205000000    -0.938000000
C    -0.280000000    -4.711000000     0.439000000
C     0.977000000    -4.838000000     0.863000000
H     1.748000000    -4.543000000     0.156000000
C    -1.326000000    -5.004000000     1.332000000
H    -2.354000000    -4.960000000     0.981000000
O     0.327000000    -4.641000000    -1.945000000
H    -0.508000000    -3.118000000    -0.877000000
C    -2.426000000    -3.104000000    -3.284000000
C    -1.402000000    -3.752000000    -4.155000000
H    -1.584000000    -3.492000000    -5.200000000
H    -1.403000000    -4.844000000    -4.123000000
C     0.032000000    -3.169000000    -3.890000000
C     0.495000000    -2.047000000    -4.474000000
H    -0.028000000    -1.594000000    -5.312000000
C     0.765000000    -3.671000000    -2.825000000
C     2.021000000    -3.138000000    -2.401000000
H     2.556000000    -3.552000000    -1.550000000
C     2.423000000    -1.976000000    -3.096000000
O     3.665000000    -1.405000000    -2.693000000
C     3.661000000    -0.199000000    -1.933000000
C     4.646000000    -0.254000000    -0.820000000
C     5.092000000    -1.470000000    -0.282000000
H     4.639000000    -2.385000000    -0.654000000
C     5.243000000     0.923000000    -0.360000000
H     4.871000000     1.890000000    -0.689000000
O     3.862000000     0.905000000    -2.832000000
H     2.667000000    -0.027000000    -1.495000000
C     1.772000000    -1.501000000    -4.229000000
C     2.171000000    -0.256000000    -4.983000000
H     1.742000000    -0.205000000    -5.986000000
H     3.243000000    -0.390000000    -5.142000000
C     1.913000000     0.987000000    -4.179000000
C     2.789000000     1.576000000    -3.274000000
C     2.411000000     2.698000000    -2.612000000
H     3.064000000     3.138000000    -1.863000000
C     1.243000000     3.361000000    -2.931000000
O     0.986000000     4.387000000    -2.112000000
C     0.010000000     4.211000000    -1.024000000
H    -0.075000000     3.138000000    -0.801000000
C     0.289000000     4.708000000     0.406000000
C    -0.580000000     5.316000000     1.262000000
H    -1.615000000     5.286000000     0.932000000
C     1.699000000     4.732000000     0.783000000
H     2.530000000     4.242000000     0.281000000
C     2.082000000     5.345000000     1.974000000
O     3.433000000     5.496000000     2.308000000
C     1.168000000     5.939000000     2.804000000
H     1.537000000     6.438000000     3.696000000
C    -0.186000000     5.930000000     2.483000000
O    -1.079000000     6.387000000     3.438000000
C    -2.348000000     5.779000000     3.625000000
C    -2.543000000     4.511000000     4.097000000
H    -1.763000000     3.930000000     4.583000000
C    -3.356000000     6.385000000     2.885000000
H    -3.316000000     7.370000000     2.426000000
C    -4.492000000     5.722000000     2.515000000
H    -5.133000000     6.134000000     1.740000000
C    -4.759000000     4.498000000     3.002000000
H    -5.730000000     4.063000000     2.782000000
C    -3.821000000     3.885000000     3.895000000
O    -3.943000000     2.592000000     4.375000000
C    -4.296000000     1.445000000     3.647000000
C    -4.712000000     0.278000000     4.334000000
H    -4.855000000     0.335000000     5.410000000
C    -4.834000000    -0.898000000     3.690000000
O    -5.109000000    -1.981000000     4.480000000
C    -4.859000000    -3.254000000     3.984000000
C    -3.584000000    -3.720000000     3.931000000
H    -2.796000000    -3.054000000     4.273000000
C    -5.958000000    -4.032000000     3.594000000
H    -6.911000000    -3.518000000     3.675000000
C    -5.756000000    -5.316000000     3.116000000
H    -6.570000000    -5.975000000     2.824000000
C    -4.457000000    -5.868000000     3.133000000
H    -4.167000000    -6.877000000     2.851000000
C    -3.401000000    -5.039000000     3.474000000
O    -2.120000000    -5.703000000     3.524000000
C    -1.090000000    -5.476000000     2.572000000
C     0.215000000    -5.719000000     2.923000000
H     0.424000000    -6.135000000     3.905000000
C     1.296000000    -5.421000000     2.128000000
O     2.633000000    -5.521000000     2.587000000
C     3.811000000    -5.291000000     1.894000000
C     4.349000000    -4.016000000     1.911000000
H     3.860000000    -3.188000000     2.418000000
C     4.427000000    -6.362000000     1.252000000
H     3.944000000    -7.334000000     1.317000000
C     5.712000000    -6.227000000     0.744000000
H     6.240000000    -7.075000000     0.317000000
C     6.297000000    -4.946000000     0.722000000
H     7.325000000    -4.732000000     0.441000000
C     5.661000000    -3.849000000     1.299000000
O     6.427000000    -2.613000000     1.348000000
C     6.017000000    -1.482000000     0.731000000
C     6.552000000    -0.289000000     1.159000000
H     7.202000000    -0.267000000     2.030000000
C     6.163000000     0.900000000     0.668000000
O     6.718000000     2.020000000     1.260000000
C     6.247000000     3.338000000     1.228000000
C     6.997000000     4.222000000     0.495000000
H     7.900000000     3.926000000    -0.033000000
C     6.546000000     5.524000000     0.349000000
H     7.066000000     6.159000000    -0.363000000
C     5.286000000     5.942000000     0.894000000
H     4.894000000     6.928000000     0.659000000
C     4.571000000     5.007000000     1.652000000
C     5.050000000     3.694000000     1.793000000
H     4.463000000     2.856000000     2.161000000
C     2.447000000    -0.353000000     3.367000000
H     3.108000000    -1.047000000     3.880000000
C     1.883000000    -0.700000000     2.181000000
H     2.132000000    -1.617000000     1.652000000
C     0.899000000     0.091000000     1.601000000
H     0.515000000    -0.226000000     0.624000000
C     0.479000000     1.218000000     2.208000000
H    -0.259000000     1.852000000     1.724000000
C     1.053000000     1.595000000     3.385000000
H     0.876000000     2.589000000     3.785000000
C     2.016000000     0.802000000     4.013000000
C     2.514000000     1.113000000     5.449000000
O     2.133000000     2.112000000     5.951000000
O     3.083000000     0.315000000     6.150000000
O     5.443000000     3.108000000     7.030000000
H     5.800000000     2.267000000     6.745000000
H     5.133000000     3.522000000     6.225000000
O     3.591000000     4.420000000     8.353000000
H     4.334000000     4.002000000     7.918000000
H     3.065000000     3.691000000     8.684000000
O     5.858000000     0.290000000     6.120000000
H     6.023000000    -0.320000000     6.839000000
H     4.905000000     0.364000000     6.083000000
O    -0.703000000     1.813000000     8.757000000
H    -0.938000000     2.062000000     9.650000000
H    -1.314000000     1.110000000     8.535000000
O     0.305000000    -1.568000000     9.607000000
H     0.554000000    -1.164000000     8.776000000
H    -0.198000000    -2.343000000     9.357000000
O     5.261000000    -3.816000000     6.613000000
H     5.852000000    -4.368000000     6.102000000
H     5.202000000    -3.001000000     6.113000000
O    -1.644000000    -1.079000000     6.241000000
H    -1.804000000    -1.186000000     5.304000000
H    -0.690000000    -1.063000000     6.320000000
O     2.173000000     2.025000000     8.677000000
H     2.281000000     1.993000000     7.726000000
H     1.278000000     1.720000000     8.827000000
O    -0.103000000     3.633000000     6.732000000
H     0.658000000     3.144000000     6.419000000
H    -0.476000000     3.081000000     7.420000000
O     2.784000000     2.855000000    11.246000000
H     2.517000000     2.541000000    10.382000000
H     2.081000000     2.572000000    11.831000000
O     2.608000000    -4.040000000     6.518000000
H     3.552000000    -3.889000000     6.486000000
H     2.500000000    -4.948000000     6.234000000
O     6.198000000    -0.942000000     8.452000000
H     6.488000000    -0.291000000     9.090000000
H     5.739000000    -1.601000000     8.973000000
O     1.199000000    -1.628000000     6.822000000
H     1.924000000    -1.005000000     6.762000000
H     1.594000000    -2.475000000     6.615000000
O     3.565000000     3.758000000     4.555000000
H     3.080000000     3.984000000     3.761000000
H     2.960000000     3.214000000     5.059000000
O     2.968000000    -0.515000000     9.291000000
H     3.896000000    -0.345000000     9.452000000
H     2.675000000     0.233000000     8.771000000
O     5.527000000     5.561000000     5.190000000
H     5.401000000     6.441000000     4.833000000
H     4.701000000     5.110000000     5.012000000
O    -0.994000000    -1.431000000     3.378000000
H    -0.544000000    -2.245000000     3.151000000
H    -0.340000000    -0.747000000     3.237000000
O     7.855000000     1.843000000     5.045000000
H     7.091000000     1.313000000     5.275000000
H     8.592000000     1.234000000     5.093000000
O     5.715000000    -2.102000000     4.569000000
H     5.605000000    -1.159000000     4.693000000
H     6.658000000    -2.220000000     4.455000000
