215
-1469.28287
C    -4.369000000     0.793000000     3.038000000
H    -5.078000000     0.140000000     2.535000000
C    -3.631000000     1.746000000     2.323000000
C    -2.629000000     2.483000000     2.951000000
H    -1.978000000     3.153000000     2.395000000
C    -3.733000000     1.815000000     0.789000000
O    -4.910000000     1.114000000     0.279000000
H    -2.842000000     1.269000000     0.445000000
O    -3.725000000     3.195000000     0.323000000
C    -2.974000000     3.451000000    -0.760000000
C    -1.761000000     4.128000000    -0.577000000
H    -1.587000000     4.497000000     0.430000000
C    -0.908000000     4.323000000    -1.657000000
O     0.297000000     4.868000000    -1.382000000
C    -1.207000000     3.852000000    -2.920000000
C    -0.204000000     3.912000000    -4.052000000
H    -0.697000000     3.996000000    -5.023000000
C     0.781000000     2.792000000    -3.994000000
C     0.529000000     1.655000000    -4.751000000
H    -0.416000000     1.525000000    -5.272000000
H     0.345000000     4.853000000    -4.128000000
C    -2.400000000     3.152000000    -3.092000000
H    -2.712000000     2.791000000    -4.069000000
C    -3.232000000     2.872000000    -2.017000000
C    -4.547000000     2.157000000    -2.347000000
H    -4.839000000     2.382000000    -3.375000000
H    -5.285000000     2.681000000    -1.737000000
C    -4.416000000     0.644000000    -2.072000000
C    -4.038000000    -0.238000000    -3.059000000
H    -3.913000000     0.102000000    -4.084000000
C    -4.685000000     0.240000000    -0.770000000
C    -4.479000000    -1.014000000    -0.438000000
H    -4.687000000    -1.365000000     0.569000000
C    -4.066000000    -1.991000000    -1.367000000
O    -3.705000000    -3.281000000    -0.815000000
C    -2.278000000    -3.569000000    -0.817000000
C    -1.854000000    -4.235000000     0.497000000
C    -0.777000000    -5.209000000     0.498000000
H    -0.492000000    -5.629000000    -0.463000000
C    -2.374000000    -3.846000000     1.721000000
H    -3.143000000    -3.079000000     1.762000000
O    -1.945000000    -4.328000000    -1.995000000
H    -1.814000000    -2.572000000    -0.834000000
C    -3.843000000    -1.594000000    -2.760000000
C    -3.349000000    -2.527000000    -3.861000000
H    -3.618000000    -2.242000000    -4.880000000
H    -3.788000000    -3.511000000    -3.679000000
C    -1.854000000    -2.681000000    -3.808000000
C    -1.105000000    -1.825000000    -4.538000000
H    -1.580000000    -1.193000000    -5.285000000
C    -1.214000000    -3.535000000    -2.868000000
C     0.176000000    -3.477000000    -2.753000000
H     0.691000000    -4.120000000    -2.044000000
C     0.942000000    -2.729000000    -3.673000000
O     2.306000000    -2.616000000    -3.384000000
C     2.858000000    -1.507000000    -2.737000000
C     3.987000000    -1.907000000    -1.743000000
C     3.796000000    -3.121000000    -1.018000000
H     2.999000000    -3.812000000    -1.281000000
C     5.032000000    -1.016000000    -1.327000000
H     5.141000000    -0.067000000    -1.846000000
O     3.319000000    -0.475000000    -3.590000000
H     2.083000000    -1.039000000    -2.112000000
C     0.288000000    -1.831000000    -4.496000000
C     1.019000000    -0.755000000    -5.377000000
H     0.501000000    -0.446000000    -6.287000000
H     2.009000000    -1.074000000    -5.711000000
C     1.349000000     0.512000000    -4.615000000
C     2.492000000     0.635000000    -3.843000000
C     2.827000000     1.807000000    -3.167000000
H     3.643000000     1.830000000    -2.450000000
C     1.955000000     2.862000000    -3.199000000
O     2.151000000     3.885000000    -2.254000000
C     1.272000000     3.912000000    -1.070000000
H     0.752000000     2.962000000    -0.876000000
C     2.036000000     4.214000000     0.130000000
C     1.495000000     5.091000000     1.103000000
H     0.638000000     5.708000000     0.845000000
C     3.184000000     3.505000000     0.432000000
H     3.510000000     2.755000000    -0.284000000
C     3.892000000     3.838000000     1.549000000
O     5.149000000     3.346000000     1.781000000
C     3.372000000     4.740000000     2.501000000
H     3.905000000     4.998000000     3.413000000
C     2.144000000     5.318000000     2.290000000
O     1.647000000     6.277000000     3.101000000
C     0.319000000     6.090000000     3.536000000
C     0.007000000     4.818000000     4.134000000
H     0.831000000     4.177000000     4.435000000
C    -0.638000000     7.066000000     3.247000000
H    -0.297000000     7.991000000     2.790000000
C    -2.000000000     6.748000000     3.577000000
H    -2.785000000     7.484000000     3.423000000
C    -2.297000000     5.480000000     4.208000000
H    -3.306000000     5.229000000     4.523000000
C    -1.335000000     4.565000000     4.440000000
O    -1.605000000     3.301000000     4.948000000
C    -2.510000000     2.451000000     4.318000000
C    -3.353000000     1.626000000     5.036000000
H    -3.210000000     1.520000000     6.108000000
C    -4.255000000     0.763000000     4.402000000
O    -5.039000000    -0.128000000     5.059000000
C    -4.914000000    -1.528000000     4.800000000
C    -3.646000000    -2.118000000     4.590000000
H    -2.740000000    -1.574000000     4.334000000
C    -6.053000000    -2.319000000     4.954000000
H    -7.036000000    -1.916000000     5.184000000
C    -6.066000000    -3.719000000     4.857000000
H    -6.933000000    -4.362000000     4.982000000
C    -4.849000000    -4.227000000     4.424000000
H    -4.822000000    -5.293000000     4.212000000
C    -3.614000000    -3.511000000     4.382000000
O    -2.452000000    -4.153000000     4.187000000
C    -1.947000000    -4.401000000     2.901000000
C    -0.831000000    -5.241000000     2.868000000
H    -0.481000000    -5.710000000     3.785000000
C    -0.242000000    -5.650000000     1.722000000
O     0.742000000    -6.583000000     1.732000000
C     1.797000000    -6.573000000     0.938000000
C     2.714000000    -5.528000000     1.004000000
H     2.600000000    -4.607000000     1.570000000
C     2.031000000    -7.682000000     0.158000000
H     1.191000000    -8.354000000     0.000000000
C     3.241000000    -7.799000000    -0.561000000
H     3.459000000    -8.614000000    -1.247000000
C     4.181000000    -6.768000000    -0.354000000
H     5.121000000    -6.897000000    -0.883000000
C     3.909000000    -5.630000000     0.330000000
O     4.887000000    -4.711000000     0.500000000
C     4.831000000    -3.474000000    -0.140000000
C     5.819000000    -2.598000000     0.264000000
H     6.506000000    -2.937000000     1.035000000
C     5.869000000    -1.388000000    -0.314000000
O     6.942000000    -0.634000000    -0.009000000
C     6.939000000     0.685000000    -0.020000000
C     7.832000000     1.407000000    -0.831000000
H     8.506000000     0.907000000    -1.522000000
C     7.744000000     2.812000000    -0.866000000
H     8.410000000     3.431000000    -1.462000000
C     6.819000000     3.453000000     0.051000000
H     6.810000000     4.540000000     0.073000000
C     5.922000000     2.713000000     0.812000000
C     6.086000000     1.307000000     0.850000000
H     5.426000000     0.731000000     1.493000000
C     0.301000000    -1.664000000     1.831000000
H    -0.262000000    -2.353000000     2.455000000
C    -0.302000000    -0.891000000     0.841000000
H    -1.363000000    -0.944000000     0.608000000
C     0.454000000    -0.145000000    -0.078000000
H     0.032000000     0.455000000    -0.900000000
C     1.847000000    -0.096000000     0.048000000
H     2.424000000     0.609000000    -0.545000000
C     2.433000000    -0.784000000     1.161000000
H     3.507000000    -0.750000000     1.325000000
C     1.670000000    -1.543000000     2.017000000
C     2.253000000    -2.288000000     3.136000000
O     3.406000000    -2.656000000     3.049000000
O     1.549000000    -2.475000000     4.197000000
O     4.856000000    -0.226000000     3.903000000
H     5.756000000    -0.315000000     4.216000000
H     4.542000000    -1.126000000     3.818000000
O     0.746000000    -5.757000000     7.679000000
H     1.613000000    -5.633000000     8.065000000
H     0.732000000    -5.165000000     6.927000000
O     1.892000000    -1.121000000     7.453000000
H     2.648000000    -1.573000000     7.077000000
H     1.154000000    -1.394000000     6.908000000
O     7.693000000    -5.569000000     1.985000000
H     7.938000000    -6.432000000     2.319000000
H     7.290000000    -5.128000000     2.732000000
O    -1.460000000    -1.087000000     7.231000000
H    -0.991000000    -0.682000000     6.502000000
H    -1.635000000    -1.981000000     6.935000000
O     4.209000000     0.596000000     7.312000000
H     3.389000000     0.120000000     7.182000000
H     4.891000000    -0.065000000     7.197000000
O     2.566000000    -4.870000000     4.825000000
H     2.407000000    -4.035000000     4.385000000
H     3.374000000    -5.199000000     4.430000000
O     0.674000000     0.490000000     9.203000000
H     0.498000000     1.318000000     8.758000000
H     1.110000000    -0.049000000     8.543000000
O     0.169000000    -0.256000000     5.117000000
H     0.641000000    -0.916000000     4.611000000
H     0.153000000     0.515000000     4.550000000
O     1.380000000    -7.335000000     5.034000000
H     1.825000000    -6.491000000     4.957000000
H     1.607000000    -7.647000000     5.910000000
O     5.427000000    -5.375000000     6.074000000
H     5.302000000    -5.305000000     5.128000000
H     5.771000000    -6.259000000     6.206000000
O     7.311000000    -3.522000000     6.521000000
H     7.884000000    -4.152000000     6.958000000
H     6.470000000    -3.972000000     6.448000000
O    -0.300000000    -3.669000000     5.928000000
H     0.270000000    -3.421000000     5.199000000
H    -1.088000000    -4.016000000     5.509000000
O     3.542000000     2.218000000     4.560000000
H     3.220000000     2.143000000     5.459000000
H     4.037000000     1.412000000     4.415000000
O     3.752000000    -3.023000000     6.847000000
H     4.290000000    -3.731000000     7.202000000
H     3.531000000    -3.311000000     5.961000000
O     0.933000000     1.374000000     3.110000000
H     0.806000000     0.984000000     2.245000000
H     1.817000000     1.740000000     3.081000000
O     2.667000000    -3.979000000     9.433000000
H     2.864000000    -3.182000000     8.942000000
H     1.844000000    -3.787000000     9.883000000
O     7.406000000    -0.302000000     5.015000000
H     7.023000000    -0.513000000     5.867000000
H     8.035000000    -1.006000000     4.854000000
O     5.201000000    -4.393000000     3.424000000
H     5.562000000    -4.508000000     2.545000000
H     4.560000000    -3.689000000     3.328000000
