215
-1465.13651
C    -4.524000000    -0.939000000     2.067000000
H    -4.283000000    -1.862000000     1.546000000
C    -4.568000000     0.226000000     1.324000000
C    -4.713000000     1.406000000     1.935000000
H    -4.657000000     2.371000000     1.436000000
C    -4.183000000     0.135000000    -0.121000000
O    -4.777000000    -1.021000000    -0.759000000
H    -3.101000000    -0.065000000    -0.098000000
O    -4.555000000     1.355000000    -0.793000000
C    -3.645000000     1.824000000    -1.764000000
C    -3.007000000     3.055000000    -1.464000000
H    -3.252000000     3.528000000    -0.517000000
C    -2.021000000     3.535000000    -2.241000000
O    -1.191000000     4.603000000    -1.755000000
C    -1.720000000     2.928000000    -3.461000000
C    -0.609000000     3.516000000    -4.423000000
H    -0.919000000     3.338000000    -5.454000000
C     0.769000000     2.927000000    -4.131000000
C     1.228000000     1.697000000    -4.724000000
H     0.562000000     1.139000000    -5.377000000
H    -0.844000000     4.578000000    -4.325000000
C    -2.357000000     1.772000000    -3.809000000
H    -2.164000000     1.350000000    -4.792000000
C    -3.301000000     1.164000000    -2.951000000
C    -4.168000000     0.046000000    -3.422000000
H    -4.202000000    -0.075000000    -4.507000000
H    -5.165000000     0.167000000    -2.994000000
C    -3.726000000    -1.254000000    -2.893000000
C    -2.743000000    -2.003000000    -3.603000000
H    -2.490000000    -1.611000000    -4.585000000
C    -3.972000000    -1.694000000    -1.584000000
C    -3.334000000    -2.798000000    -1.032000000
H    -3.611000000    -3.231000000    -0.075000000
C    -2.399000000    -3.470000000    -1.844000000
O    -1.651000000    -4.495000000    -1.255000000
C    -0.408000000    -4.119000000    -0.595000000
C    -0.188000000    -4.725000000     0.763000000
C     1.056000000    -5.097000000     1.242000000
H     1.906000000    -5.099000000     0.564000000
C    -1.287000000    -5.010000000     1.572000000
H    -2.295000000    -4.881000000     1.188000000
O     0.727000000    -4.506000000    -1.433000000
H    -0.525000000    -3.029000000    -0.502000000
C    -2.089000000    -3.056000000    -3.081000000
C    -0.945000000    -3.713000000    -3.893000000
H    -1.068000000    -3.674000000    -4.977000000
H    -0.858000000    -4.754000000    -3.574000000
C     0.435000000    -3.169000000    -3.519000000
C     0.920000000    -2.197000000    -4.398000000
H     0.292000000    -1.756000000    -5.167000000
C     1.227000000    -3.695000000    -2.461000000
C     2.525000000    -3.206000000    -2.313000000
H     3.087000000    -3.460000000    -1.418000000
C     2.968000000    -2.119000000    -3.085000000
O     4.098000000    -1.399000000    -2.645000000
C     3.946000000    -0.147000000    -1.886000000
C     4.646000000    -0.116000000    -0.552000000
C     4.880000000    -1.297000000     0.120000000
H     4.716000000    -2.325000000    -0.193000000
C     4.983000000     1.157000000    -0.022000000
H     4.875000000     2.032000000    -0.658000000
O     4.225000000     0.935000000    -2.764000000
H     2.890000000    -0.127000000    -1.578000000
C     2.173000000    -1.670000000    -4.135000000
C     2.706000000    -0.393000000    -4.934000000
H     2.278000000    -0.441000000    -5.937000000
H     3.787000000    -0.520000000    -5.022000000
C     2.365000000     1.001000000    -4.338000000
C     3.165000000     1.601000000    -3.304000000
C     2.773000000     2.772000000    -2.681000000
H     3.335000000     3.153000000    -1.832000000
C     1.582000000     3.451000000    -3.080000000
O     1.136000000     4.432000000    -2.267000000
C     0.112000000     4.188000000    -1.282000000
H     0.191000000     3.118000000    -1.038000000
C     0.456000000     4.803000000     0.061000000
C    -0.388000000     4.602000000     1.085000000
H    -1.244000000     3.961000000     0.893000000
C     1.691000000     5.409000000     0.288000000
H     2.414000000     5.448000000    -0.523000000
C     2.008000000     5.926000000     1.550000000
O     3.257000000     6.419000000     1.727000000
C     1.071000000     5.796000000     2.613000000
H     1.335000000     6.202000000     3.586000000
C    -0.147000000     5.081000000     2.383000000
O    -1.007000000     4.996000000     3.360000000
C    -2.447000000     5.019000000     3.226000000
C    -3.188000000     3.903000000     3.620000000
H    -2.647000000     3.107000000     4.125000000
C    -3.198000000     6.087000000     2.814000000
H    -2.737000000     6.929000000     2.306000000
C    -4.575000000     6.054000000     2.731000000
H    -5.104000000     6.932000000     2.369000000
C    -5.298000000     4.873000000     3.017000000
H    -6.356000000     4.708000000     2.829000000
C    -4.588000000     3.819000000     3.559000000
O    -5.264000000     2.715000000     3.935000000
C    -5.032000000     1.484000000     3.325000000
C    -5.041000000     0.322000000     4.051000000
H    -5.203000000     0.205000000     5.119000000
C    -4.870000000    -0.896000000     3.398000000
O    -4.852000000    -1.996000000     4.217000000
C    -4.757000000    -3.268000000     3.764000000
C    -3.535000000    -3.908000000     4.038000000
H    -2.670000000    -3.476000000     4.536000000
C    -5.784000000    -3.811000000     2.966000000
H    -6.654000000    -3.230000000     2.670000000
C    -5.650000000    -5.118000000     2.511000000
H    -6.435000000    -5.468000000     1.845000000
C    -4.439000000    -5.793000000     2.730000000
H    -4.307000000    -6.810000000     2.371000000
C    -3.411000000    -5.144000000     3.452000000
O    -2.222000000    -5.849000000     3.611000000
C    -1.139000000    -5.632000000     2.817000000
C     0.161000000    -5.960000000     3.275000000
H     0.281000000    -6.376000000     4.272000000
C     1.250000000    -5.696000000     2.494000000
O     2.478000000    -6.115000000     2.973000000
C     3.602000000    -5.543000000     2.433000000
C     3.840000000    -4.199000000     2.679000000
H     3.105000000    -3.681000000     3.290000000
C     4.419000000    -6.328000000     1.666000000
H     4.068000000    -7.341000000     1.485000000
C     5.522000000    -5.730000000     1.044000000
H     6.230000000    -6.334000000     0.483000000
C     5.754000000    -4.334000000     1.259000000
H     6.624000000    -3.917000000     0.758000000
C     4.962000000    -3.605000000     2.140000000
O     5.222000000    -2.288000000     2.357000000
C     5.311000000    -1.210000000     1.489000000
C     5.500000000     0.071000000     2.001000000
H     5.747000000     0.061000000     3.060000000
C     5.420000000     1.262000000     1.260000000
O     5.788000000     2.435000000     1.869000000
C     5.579000000     3.694000000     1.290000000
C     6.509000000     4.167000000     0.364000000
H     7.306000000     3.460000000     0.144000000
C     6.324000000     5.457000000    -0.183000000
H     6.892000000     5.814000000    -1.038000000
C     5.228000000     6.161000000     0.269000000
H     5.065000000     7.120000000    -0.216000000
C     4.379000000     5.690000000     1.258000000
C     4.495000000     4.450000000     1.783000000
H     3.912000000     4.100000000     2.631000000
C     1.643000000    -1.257000000     1.727000000
H     1.714000000    -2.299000000     2.027000000
C     1.277000000    -0.899000000     0.437000000
H     1.124000000    -1.758000000    -0.211000000
C     1.152000000     0.435000000     0.116000000
H     0.971000000     0.775000000    -0.936000000
C     1.519000000     1.384000000     0.994000000
H     1.679000000     2.413000000     0.685000000
C     1.895000000     1.092000000     2.330000000
H     2.126000000     1.860000000     3.063000000
C     1.993000000    -0.279000000     2.686000000
C     2.607000000    -0.655000000     4.017000000
O     3.219000000     0.252000000     4.631000000
O     2.313000000    -1.768000000     4.551000000
O     5.927000000     1.183000000     6.666000000
H     5.761000000     0.264000000     6.456000000
H     5.289000000     1.667000000     6.142000000
O     4.964000000    -1.238000000     6.022000000
H     4.414000000    -1.584000000     6.724000000
H     4.344000000    -0.884000000     5.384000000
O    -0.521000000     0.132000000     8.823000000
H    -0.464000000    -0.278000000     9.686000000
H    -1.374000000     0.567000000     8.821000000
O    -2.582000000    -1.988000000     6.671000000
H    -1.667000000    -2.130000000     6.912000000
H    -2.554000000    -1.277000000     6.031000000
O     5.265000000    -4.585000000     6.579000000
H     5.269000000    -4.367000000     7.511000000
H     6.059000000    -4.176000000     6.234000000
O    -2.090000000    -0.223000000     4.741000000
H    -1.357000000    -0.778000000     4.477000000
H    -2.552000000    -0.032000000     3.924000000
O     2.693000000     0.119000000     7.401000000
H     2.649000000    -0.138000000     6.479000000
H     2.850000000    -0.701000000     7.870000000
O     8.349000000     1.122000000     3.161000000
H     7.455000000     1.446000000     3.270000000
H     8.729000000     1.167000000     4.038000000
O     0.915000000     2.358000000     7.707000000
H     1.149000000     3.105000000     7.156000000
H     1.502000000     1.657000000     7.423000000
O     2.871000000     1.755000000     9.553000000
H     3.225000000     1.150000000     8.901000000
H     2.027000000     2.028000000     9.194000000
O     2.232000000    -4.140000000     6.037000000
H     2.448000000    -3.371000000     5.509000000
H     2.714000000    -4.857000000     5.624000000
O     3.345000000    -2.235000000     8.089000000
H     3.894000000    -2.756000000     8.676000000
H     2.700000000    -2.855000000     7.752000000
O    -0.447000000    -2.300000000     3.589000000
H     0.464000000    -2.013000000     3.649000000
H    -0.408000000    -3.123000000     3.102000000
O     4.315000000     2.657000000     5.275000000
H     3.605000000     3.174000000     5.656000000
H     3.895000000     1.843000000     4.996000000
O     0.074000000    -1.945000000     7.202000000
H     0.571000000    -1.702000000     6.421000000
H     0.141000000    -1.182000000     7.775000000
O     0.465000000    -4.723000000     8.269000000
H     0.072000000    -3.909000000     7.955000000
H     1.080000000    -4.973000000     7.580000000
O     6.501000000     4.569000000     5.301000000
H     6.470000000     5.046000000     6.130000000
H     5.804000000     3.917000000     5.374000000
O    -1.566000000    -0.773000000     1.242000000
H    -1.508000000    -1.127000000     2.130000000
H    -0.735000000    -0.317000000     1.112000000
O     7.327000000    -3.091000000     4.785000000
H     6.717000000    -2.396000000     5.032000000
H     7.819000000    -2.727000000     4.049000000
