215
-1465.01605
C    -4.705000000     0.307000000     2.884000000
H    -5.113000000    -0.658000000     2.592000000
C    -4.245000000     1.326000000     2.055000000
C    -3.664000000     2.468000000     2.658000000
H    -3.122000000     3.215000000     2.084000000
C    -4.070000000     1.023000000     0.492000000
O    -4.921000000    -0.001000000     0.021000000
H    -3.044000000     0.676000000     0.302000000
O    -4.429000000     2.284000000    -0.162000000
C    -3.573000000     2.653000000    -1.177000000
C    -2.660000000     3.643000000    -0.935000000
H    -2.670000000     4.214000000    -0.010000000
C    -1.641000000     3.871000000    -1.877000000
O    -0.564000000     4.627000000    -1.519000000
C    -1.713000000     3.338000000    -3.126000000
C    -0.664000000     3.630000000    -4.223000000
H    -1.174000000     3.492000000    -5.179000000
C     0.600000000     2.795000000    -4.154000000
C     0.541000000     1.546000000    -4.794000000
H    -0.392000000     1.289000000    -5.290000000
H    -0.271000000     4.648000000    -4.227000000
C    -2.679000000     2.384000000    -3.405000000
H    -2.829000000     1.990000000    -4.407000000
C    -3.699000000     2.020000000    -2.469000000
C    -4.738000000     0.976000000    -2.741000000
H    -4.950000000     1.162000000    -3.796000000
H    -5.605000000     1.261000000    -2.142000000
C    -4.317000000    -0.437000000    -2.277000000
C    -3.635000000    -1.248000000    -3.220000000
H    -3.441000000    -0.783000000    -4.183000000
C    -4.407000000    -0.791000000    -0.931000000
C    -3.955000000    -2.022000000    -0.514000000
H    -3.934000000    -2.219000000     0.555000000
C    -3.423000000    -2.912000000    -1.489000000
O    -2.733000000    -3.953000000    -0.949000000
C    -1.280000000    -3.945000000    -0.753000000
C    -0.910000000    -4.687000000     0.575000000
C     0.156000000    -5.545000000     0.718000000
H     0.743000000    -5.855000000    -0.142000000
C    -1.661000000    -4.318000000     1.683000000
H    -2.508000000    -3.662000000     1.497000000
O    -0.638000000    -4.609000000    -1.878000000
H    -0.899000000    -2.915000000    -0.809000000
C    -3.110000000    -2.487000000    -2.792000000
C    -2.419000000    -3.331000000    -3.832000000
H    -2.777000000    -3.170000000    -4.851000000
H    -2.507000000    -4.399000000    -3.622000000
C    -0.968000000    -2.998000000    -3.620000000
C    -0.399000000    -1.990000000    -4.400000000
H    -1.005000000    -1.472000000    -5.139000000
C    -0.134000000    -3.739000000    -2.874000000
C     1.284000000    -3.579000000    -2.766000000
H     1.830000000    -4.132000000    -2.007000000
C     1.818000000    -2.511000000    -3.510000000
O     3.135000000    -2.175000000    -3.296000000
C     3.369000000    -0.978000000    -2.481000000
C     4.369000000    -1.314000000    -1.362000000
C     4.315000000    -2.515000000    -0.671000000
H     3.638000000    -3.340000000    -0.877000000
C     5.080000000    -0.242000000    -0.769000000
H     4.960000000     0.775000000    -1.131000000
O     3.708000000     0.059000000    -3.399000000
H     2.415000000    -0.647000000    -2.046000000
C     0.977000000    -1.787000000    -4.347000000
C     1.511000000    -0.698000000    -5.308000000
H     0.981000000    -0.509000000    -6.244000000
H     2.515000000    -0.995000000    -5.617000000
C     1.655000000     0.648000000    -4.617000000
C     2.702000000     0.902000000    -3.800000000
C     2.641000000     2.079000000    -3.082000000
H     3.445000000     2.276000000    -2.378000000
C     1.559000000     2.904000000    -3.152000000
O     1.600000000     3.970000000    -2.219000000
C     0.628000000     3.913000000    -1.165000000
H     0.375000000     2.858000000    -0.983000000
C     1.306000000     4.506000000     0.020000000
C     0.502000000     5.122000000     0.992000000
H    -0.585000000     5.146000000     0.982000000
C     2.662000000     4.386000000     0.298000000
H     3.270000000     3.959000000    -0.495000000
C     3.279000000     4.943000000     1.489000000
O     4.606000000     5.048000000     1.682000000
C     2.465000000     5.635000000     2.335000000
H     2.905000000     6.048000000     3.239000000
C     1.107000000     5.743000000     2.118000000
O     0.300000000     6.453000000     2.947000000
C    -0.986000000     6.163000000     3.195000000
C    -1.419000000     5.136000000     4.032000000
H    -0.650000000     4.694000000     4.660000000
C    -1.936000000     6.884000000     2.600000000
H    -1.673000000     7.818000000     2.111000000
C    -3.300000000     6.578000000     2.785000000
H    -4.089000000     7.134000000     2.285000000
C    -3.707000000     5.502000000     3.522000000
H    -4.756000000     5.233000000     3.609000000
C    -2.760000000     4.690000000     4.092000000
O    -3.148000000     3.640000000     4.778000000
C    -3.721000000     2.563000000     4.060000000
C    -4.107000000     1.552000000     4.828000000
H    -4.040000000     1.621000000     5.911000000
C    -4.565000000     0.389000000     4.233000000
O    -4.995000000    -0.653000000     5.014000000
C    -4.753000000    -2.025000000     4.720000000
C    -3.463000000    -2.477000000     4.530000000
H    -2.649000000    -1.785000000     4.729000000
C    -5.847000000    -2.841000000     4.374000000
H    -6.849000000    -2.453000000     4.539000000
C    -5.612000000    -4.125000000     3.864000000
H    -6.464000000    -4.728000000     3.558000000
C    -4.269000000    -4.649000000     3.912000000
H    -4.155000000    -5.697000000     3.645000000
C    -3.227000000    -3.858000000     4.246000000
O    -1.857000000    -4.200000000     4.159000000
C    -1.276000000    -4.685000000     3.013000000
C    -0.191000000    -5.548000000     3.145000000
H     0.195000000    -5.790000000     4.132000000
C     0.547000000    -5.987000000     2.019000000
O     1.659000000    -6.753000000     2.276000000
C     2.762000000    -6.500000000     1.474000000
C     3.472000000    -5.331000000     1.626000000
H     3.005000000    -4.638000000     2.321000000
C     3.184000000    -7.512000000     0.602000000
H     2.645000000    -8.453000000     0.530000000
C     4.317000000    -7.249000000    -0.182000000
H     4.615000000    -8.004000000    -0.905000000
C     5.106000000    -6.106000000    -0.009000000
H     6.008000000    -5.998000000    -0.606000000
C     4.635000000    -5.106000000     0.891000000
O     5.332000000    -3.936000000     1.099000000
C     5.174000000    -2.737000000     0.434000000
C     6.005000000    -1.718000000     0.912000000
H     6.475000000    -1.796000000     1.889000000
C     5.891000000    -0.431000000     0.362000000
O     6.584000000     0.625000000     0.994000000
C     6.468000000     2.013000000     0.728000000
C     7.365000000     2.548000000    -0.230000000
H     8.110000000     1.918000000    -0.708000000
C     7.424000000     3.936000000    -0.391000000
H     8.094000000     4.383000000    -1.121000000
C     6.535000000     4.782000000     0.287000000
H     6.545000000     5.837000000     0.024000000
C     5.580000000     4.231000000     1.132000000
C     5.608000000     2.845000000     1.461000000
H     4.915000000     2.394000000     2.167000000
C     0.839000000    -1.445000000     2.086000000
H     0.547000000    -2.142000000     2.868000000
C    -0.073000000    -1.140000000     1.054000000
H    -1.072000000    -1.564000000     0.986000000
C     0.271000000    -0.221000000     0.098000000
H    -0.459000000     0.115000000    -0.688000000
C     1.469000000     0.485000000     0.237000000
H     1.690000000     1.275000000    -0.477000000
C     2.445000000     0.138000000     1.153000000
H     3.342000000     0.742000000     1.259000000
C     2.100000000    -0.859000000     2.103000000
C     3.138000000    -1.087000000     3.203000000
O     3.891000000    -0.213000000     3.618000000
O     2.904000000    -2.129000000     3.825000000
O     4.921000000    -0.811000000     6.081000000
H     4.582000000    -0.463000000     5.256000000
H     4.764000000    -1.753000000     6.027000000
O    -0.359000000    -1.187000000     5.290000000
H     0.111000000    -1.875000000     4.818000000
H     0.328000000    -0.600000000     5.604000000
O     5.640000000    -7.247000000     4.139000000
H     6.486000000    -7.392000000     3.714000000
H     5.444000000    -6.325000000     3.972000000
O    -1.414000000     1.257000000     6.409000000
H    -1.503000000     0.350000000     6.116000000
H    -0.668000000     1.244000000     7.008000000
O     5.172000000     1.906000000     7.244000000
H     5.516000000     1.053000000     6.979000000
H     4.231000000     1.762000000     7.349000000
O     2.680000000     1.351000000     8.338000000
H     3.006000000     1.471000000     9.230000000
H     2.453000000     0.422000000     8.290000000
O     2.728000000    -5.925000000     6.362000000
H     2.040000000    -6.166000000     6.982000000
H     3.005000000    -6.757000000     5.977000000
O     1.852000000     0.340000000     5.737000000
H     2.482000000     0.191000000     5.032000000
H     2.306000000     0.925000000     6.344000000
O     6.356000000    -4.360000000     6.390000000
H     5.856000000    -4.104000000     5.615000000
H     5.691000000    -4.619000000     7.029000000
O     2.332000000    -2.889000000     6.489000000
H     2.381000000    -2.632000000     5.569000000
H     2.429000000    -3.842000000     6.477000000
O     2.652000000     2.468000000     4.093000000
H     1.812000000     2.566000000     3.644000000
H     2.984000000     1.620000000     3.798000000
O     7.597000000     2.997000000     3.802000000
H     6.882000000     3.334000000     4.341000000
H     7.298000000     2.132000000     3.522000000
O     2.577000000    -1.276000000     8.671000000
H     2.528000000    -1.593000000     7.769000000
H     3.441000000    -1.552000000     8.975000000
O     0.033000000     2.032000000     3.627000000
H    -0.332000000     1.338000000     3.078000000
H    -0.637000000     2.188000000     4.293000000
O     5.243000000     3.388000000     4.930000000
H     4.412000000     3.169000000     4.509000000
H     5.262000000     2.847000000     5.719000000
O     2.268000000     4.918000000     5.438000000
H     2.437000000     4.037000000     5.105000000
H     1.410000000     4.854000000     5.857000000
O     9.330000000    -0.327000000     2.183000000
H     8.626000000    -0.135000000     2.803000000
H     9.712000000     0.528000000     1.983000000
O     7.423000000     0.168000000     3.899000000
H     6.515000000    -0.100000000     4.041000000
H     7.896000000    -0.177000000     4.656000000
O     5.060000000    -3.663000000     4.108000000
H     5.323000000    -3.730000000     3.190000000
H     4.222000000    -3.200000000     4.083000000
