215
-1433.07053
C    -3.850000000     1.216000000     3.181000000
H    -4.171000000     0.266000000     2.761000000
C    -3.415000000     2.210000000     2.331000000
C    -2.768000000     3.309000000     2.853000000
H    -2.609000000     4.142000000     2.174000000
C    -3.575000000     2.095000000     0.876000000
O    -4.746000000     1.341000000     0.481000000
H    -2.650000000     1.564000000     0.607000000
O    -3.527000000     3.375000000     0.112000000
C    -2.633000000     3.471000000    -0.977000000
C    -1.434000000     4.105000000    -0.737000000
H    -1.244000000     4.457000000     0.274000000
C    -0.575000000     4.237000000    -1.798000000
O     0.690000000     4.713000000    -1.446000000
C    -0.888000000     3.799000000    -3.061000000
C     0.198000000     3.915000000    -4.168000000
H    -0.176000000     3.909000000    -5.194000000
C     1.045000000     2.678000000    -4.069000000
C     0.729000000     1.560000000    -4.818000000
H    -0.164000000     1.558000000    -5.438000000
H     0.829000000     4.796000000    -4.032000000
C    -2.091000000     3.189000000    -3.300000000
H    -2.242000000     2.827000000    -4.313000000
C    -2.971000000     2.899000000    -2.180000000
C    -4.402000000     2.329000000    -2.341000000
H    -4.715000000     2.438000000    -3.381000000
H    -5.120000000     2.957000000    -1.810000000
C    -4.487000000     0.858000000    -1.934000000
C    -4.123000000    -0.035000000    -2.976000000
H    -4.031000000     0.326000000    -3.997000000
C    -4.656000000     0.465000000    -0.593000000
C    -4.566000000    -0.874000000    -0.221000000
H    -4.626000000    -1.196000000     0.816000000
C    -4.173000000    -1.756000000    -1.289000000
O    -3.923000000    -2.997000000    -0.838000000
C    -2.612000000    -3.518000000    -0.871000000
C    -2.177000000    -4.246000000     0.351000000
C    -1.421000000    -5.420000000     0.258000000
H    -1.116000000    -5.939000000    -0.648000000
C    -2.437000000    -3.694000000     1.621000000
H    -3.002000000    -2.793000000     1.843000000
O    -2.408000000    -4.287000000    -2.061000000
H    -1.871000000    -2.707000000    -0.908000000
C    -3.977000000    -1.352000000    -2.632000000
C    -3.689000000    -2.307000000    -3.707000000
H    -4.163000000    -1.929000000    -4.615000000
H    -4.091000000    -3.300000000    -3.496000000
C    -2.205000000    -2.603000000    -3.771000000
C    -1.398000000    -1.876000000    -4.569000000
H    -1.774000000    -1.058000000    -5.177000000
C    -1.619000000    -3.707000000    -3.023000000
C    -0.238000000    -3.806000000    -2.930000000
H     0.204000000    -4.496000000    -2.215000000
C     0.533000000    -2.902000000    -3.625000000
O     1.945000000    -2.954000000    -3.369000000
C     2.507000000    -1.938000000    -2.539000000
C     3.471000000    -2.370000000    -1.467000000
C     3.262000000    -3.569000000    -0.834000000
H     2.259000000    -3.972000000    -0.945000000
C     4.630000000    -1.629000000    -1.179000000
H     4.648000000    -0.636000000    -1.621000000
O     3.062000000    -0.918000000    -3.438000000
H     1.670000000    -1.527000000    -1.955000000
C     0.020000000    -1.903000000    -4.484000000
C     0.860000000    -0.881000000    -5.263000000
H     0.232000000    -0.561000000    -6.097000000
H     1.801000000    -1.321000000    -5.600000000
C     1.347000000     0.348000000    -4.502000000
C     2.423000000     0.288000000    -3.644000000
C     2.786000000     1.365000000    -2.942000000
H     3.452000000     1.253000000    -2.091000000
C     2.080000000     2.575000000    -3.134000000
O     2.436000000     3.542000000    -2.258000000
C     1.622000000     3.750000000    -1.127000000
H     1.126000000     2.791000000    -0.919000000
C     2.467000000     4.123000000     0.118000000
C     2.081000000     5.161000000     0.984000000
H     1.279000000     5.837000000     0.700000000
C     3.555000000     3.312000000     0.423000000
H     3.926000000     2.489000000    -0.184000000
C     4.218000000     3.497000000     1.658000000
O     5.208000000     2.647000000     2.049000000
C     3.729000000     4.435000000     2.602000000
H     4.232000000     4.581000000     3.554000000
C     2.694000000     5.284000000     2.216000000
O     2.201000000     6.232000000     3.022000000
C     0.890000000     6.358000000     3.287000000
C     0.111000000     5.336000000     3.759000000
H     0.501000000     4.357000000     4.023000000
C     0.286000000     7.542000000     2.815000000
H     0.925000000     8.274000000     2.327000000
C    -1.039000000     7.770000000     3.028000000
H    -1.534000000     8.710000000     2.799000000
C    -1.825000000     6.789000000     3.620000000
H    -2.911000000     6.821000000     3.587000000
C    -1.257000000     5.541000000     4.001000000
O    -2.045000000     4.584000000     4.672000000
C    -2.628000000     3.441000000     4.216000000
C    -3.024000000     2.421000000     5.040000000
H    -2.724000000     2.422000000     6.084000000
C    -3.531000000     1.259000000     4.564000000
O    -3.977000000     0.349000000     5.504000000
C    -4.130000000    -1.001000000     5.253000000
C    -2.985000000    -1.790000000     4.949000000
H    -1.972000000    -1.423000000     5.092000000
C    -5.362000000    -1.505000000     4.981000000
H    -6.206000000    -0.823000000     5.051000000
C    -5.558000000    -2.762000000     4.477000000
H    -6.579000000    -3.090000000     4.299000000
C    -4.464000000    -3.586000000     4.264000000
H    -4.607000000    -4.619000000     3.960000000
C    -3.222000000    -3.089000000     4.422000000
O    -2.198000000    -3.888000000     4.098000000
C    -1.924000000    -4.316000000     2.771000000
C    -1.312000000    -5.548000000     2.704000000
H    -1.088000000    -6.052000000     3.641000000
C    -1.011000000    -6.042000000     1.432000000
O    -0.256000000    -7.118000000     1.416000000
C     1.009000000    -7.084000000     0.960000000
C     1.873000000    -6.112000000     1.315000000
H     1.628000000    -5.394000000     2.094000000
C     1.266000000    -8.047000000     0.017000000
H     0.578000000    -8.788000000    -0.383000000
C     2.549000000    -8.061000000    -0.552000000
H     2.880000000    -8.762000000    -1.314000000
C     3.491000000    -7.085000000    -0.195000000
H     4.511000000    -7.192000000    -0.553000000
C     3.163000000    -6.097000000     0.710000000
O     4.005000000    -5.074000000     0.976000000
C     4.198000000    -4.008000000     0.124000000
C     5.352000000    -3.305000000     0.333000000
H     5.992000000    -3.637000000     1.146000000
C     5.615000000    -2.113000000    -0.304000000
O     6.691000000    -1.370000000     0.037000000
C     6.776000000     0.023000000     0.078000000
C     7.524000000     0.788000000    -0.840000000
H     8.134000000     0.372000000    -1.638000000
C     7.559000000     2.130000000    -0.685000000
H     8.283000000     2.722000000    -1.239000000
C     6.799000000     2.763000000     0.294000000
H     6.850000000     3.820000000     0.543000000
C     6.016000000     1.984000000     1.165000000
C     5.956000000     0.622000000     1.039000000
H     5.304000000     0.010000000     1.656000000
C     0.100000000    -1.348000000     2.560000000
H    -0.292000000    -2.002000000     3.335000000
C    -0.768000000    -0.488000000     1.772000000
H    -1.842000000    -0.562000000     1.921000000
C    -0.215000000     0.179000000     0.669000000
H    -0.866000000     0.744000000    -0.051000000
C     1.173000000    -0.015000000     0.320000000
H     1.556000000     0.524000000    -0.542000000
C     1.943000000    -0.846000000     1.112000000
H     3.001000000    -0.958000000     0.888000000
C     1.431000000    -1.388000000     2.261000000
C     2.413000000    -2.010000000     3.288000000
O     3.561000000    -2.130000000     2.949000000
O     2.011000000    -2.389000000     4.419000000
O     5.673000000    -0.750000000     3.884000000
H     5.559000000    -1.279000000     4.674000000
H     5.119000000    -1.175000000     3.229000000
O     1.498000000    -7.660000000     4.685000000
H     2.141000000    -7.388000000     5.340000000
H     1.225000000    -6.845000000     4.264000000
O     4.506000000    -2.209000000     5.929000000
H     4.644000000    -3.030000000     6.402000000
H     3.760000000    -2.386000000     5.356000000
O     0.798000000     1.766000000     6.789000000
H     0.119000000     2.441000000     6.799000000
H     0.718000000     1.332000000     7.638000000
O     8.414000000    -1.006000000     3.331000000
H     8.560000000    -1.808000000     2.828000000
H     7.474000000    -0.842000000     3.253000000
O    -0.818000000    -0.728000000     8.194000000
H    -0.030000000    -0.663000000     7.656000000
H    -0.539000000    -1.214000000     8.970000000
O     5.572000000    -0.091000000     7.487000000
H     4.950000000    -0.666000000     7.041000000
H     6.424000000    -0.332000000     7.123000000
O     1.634000000    -5.033000000     4.608000000
H     1.361000000    -4.132000000     4.779000000
H     2.529000000    -4.954000000     4.278000000
O    -2.302000000    -5.173000000     6.591000000
H    -1.807000000    -4.544000000     6.067000000
H    -1.743000000    -5.950000000     6.624000000
O     1.462000000    -1.115000000     6.500000000
H     1.627000000    -1.558000000     5.668000000
H     1.572000000    -0.185000000     6.302000000
O     4.783000000    -6.995000000     5.495000000
H     5.536000000    -7.521000000     5.228000000
H     4.737000000    -6.294000000     4.844000000
O     8.120000000    -3.951000000     5.214000000
H     8.681000000    -3.644000000     5.926000000
H     7.260000000    -4.061000000     5.618000000
O     1.149000000    -3.580000000     8.265000000
H     0.931000000    -2.883000000     7.646000000
H     2.104000000    -3.554000000     8.327000000
O     6.599000000     1.998000000     4.506000000
H     7.185000000     1.671000000     5.189000000
H     6.142000000     1.219000000     4.188000000
O     5.868000000    -4.737000000     6.822000000
H     5.384000000    -5.563000000     6.797000000
H     6.259000000    -4.715000000     7.696000000
O     2.243000000    -7.583000000     7.538000000
H     2.972000000    -7.186000000     7.062000000
H     2.643000000    -7.953000000     8.325000000
O     2.320000000     1.186000000     3.993000000
H     1.867000000     0.786000000     3.251000000
H     3.107000000     0.654000000     4.109000000
O     2.767000000     3.297000000     5.665000000
H     2.219000000     2.831000000     6.295000000
H     2.594000000     2.863000000     4.829000000
O     4.300000000    -4.817000000     3.744000000
H     4.761000000    -5.169000000     2.982000000
H     4.200000000    -3.884000000     3.554000000
