215
-1441.86259
C    -2.889000000     0.465000000     4.661000000
H    -3.415000000    -0.377000000     4.217000000
C    -2.778000000     1.643000000     3.888000000
C    -2.070000000     2.713000000     4.326000000
H    -1.868000000     3.605000000     3.739000000
C    -3.358000000     1.565000000     2.444000000
O    -4.519000000     0.709000000     2.369000000
H    -2.530000000     1.161000000     1.844000000
O    -3.665000000     2.949000000     2.029000000
C    -3.172000000     3.300000000     0.836000000
C    -1.969000000     4.000000000     0.723000000
H    -1.391000000     4.130000000     1.635000000
C    -1.421000000     4.236000000    -0.531000000
O    -0.104000000     4.701000000    -0.796000000
C    -2.194000000     3.986000000    -1.696000000
C    -1.630000000     4.266000000    -3.094000000
H    -2.416000000     4.477000000    -3.823000000
C    -0.694000000     3.173000000    -3.632000000
C    -1.265000000     2.135000000    -4.432000000
H    -2.315000000     2.162000000    -4.713000000
H    -1.075000000     5.206000000    -3.120000000
C    -3.479000000     3.338000000    -1.544000000
H    -4.078000000     3.112000000    -2.423000000
C    -3.914000000     2.920000000    -0.317000000
C    -5.208000000     2.120000000    -0.182000000
H    -5.791000000     2.452000000    -1.044000000
H    -5.850000000     2.502000000     0.614000000
C    -5.009000000     0.623000000    -0.023000000
C    -4.980000000    -0.194000000    -1.190000000
H    -5.195000000     0.286000000    -2.141000000
C    -4.645000000     0.050000000     1.234000000
C    -4.153000000    -1.203000000     1.258000000
H    -3.735000000    -1.648000000     2.157000000
C    -4.166000000    -1.997000000     0.103000000
O    -3.419000000    -3.160000000     0.237000000
C    -2.117000000    -3.239000000    -0.190000000
C    -1.231000000    -4.053000000     0.791000000
C    -0.010000000    -4.602000000     0.354000000
H     0.327000000    -4.466000000    -0.671000000
C    -1.541000000    -4.006000000     2.142000000
H    -2.521000000    -3.771000000     2.550000000
O    -2.099000000    -3.898000000    -1.514000000
H    -1.736000000    -2.210000000    -0.264000000
C    -4.567000000    -1.504000000    -1.147000000
C    -4.473000000    -2.373000000    -2.391000000
H    -5.411000000    -2.059000000    -2.854000000
H    -4.641000000    -3.364000000    -1.964000000
C    -3.076000000    -2.184000000    -3.048000000
C    -2.790000000    -1.286000000    -4.066000000
H    -3.615000000    -0.633000000    -4.337000000
C    -2.070000000    -3.113000000    -2.739000000
C    -0.891000000    -3.107000000    -3.386000000
H    -0.077000000    -3.752000000    -3.067000000
C    -0.607000000    -2.164000000    -4.346000000
O     0.721000000    -2.138000000    -4.843000000
C     1.610000000    -1.188000000    -4.195000000
C     3.015000000    -1.821000000    -3.896000000
C     3.174000000    -3.181000000    -3.779000000
H     2.266000000    -3.773000000    -3.862000000
C     4.090000000    -0.996000000    -3.652000000
H     3.943000000     0.079000000    -3.716000000
O     1.742000000     0.024000000    -4.965000000
H     1.206000000    -0.895000000    -3.215000000
C    -1.567000000    -1.170000000    -4.696000000
C    -1.232000000    -0.054000000    -5.622000000
H    -2.212000000     0.240000000    -6.002000000
H    -0.646000000    -0.314000000    -6.506000000
C    -0.483000000     1.053000000    -4.948000000
C     0.876000000     1.012000000    -4.594000000
C     1.425000000     1.982000000    -3.768000000
H     2.416000000     1.929000000    -3.324000000
C     0.745000000     3.111000000    -3.376000000
O     1.369000000     3.820000000    -2.387000000
C     0.943000000     3.736000000    -1.000000000
H     0.553000000     2.708000000    -0.956000000
C     2.144000000     3.895000000    -0.088000000
C     2.051000000     4.633000000     1.076000000
H     1.204000000     5.300000000     1.214000000
C     3.253000000     3.039000000    -0.306000000
H     3.333000000     2.404000000    -1.185000000
C     4.270000000     2.999000000     0.659000000
O     5.366000000     2.193000000     0.389000000
C     4.176000000     3.832000000     1.780000000
H     4.887000000     3.763000000     2.599000000
C     2.958000000     4.483000000     2.076000000
O     2.925000000     5.186000000     3.306000000
C     1.693000000     5.411000000     3.828000000
C     1.133000000     4.429000000     4.708000000
H     1.576000000     3.444000000     4.832000000
C     1.054000000     6.632000000     3.629000000
H     1.470000000     7.456000000     3.055000000
C    -0.145000000     6.864000000     4.328000000
H    -0.560000000     7.869000000     4.348000000
C    -0.733000000     5.890000000     5.118000000
H    -1.684000000     6.115000000     5.594000000
C    -0.108000000     4.639000000     5.242000000
O    -0.730000000     3.715000000     6.078000000
C    -1.559000000     2.726000000     5.613000000
C    -1.648000000     1.611000000     6.386000000
H    -1.075000000     1.482000000     7.302000000
C    -2.334000000     0.451000000     5.933000000
O    -2.185000000    -0.754000000     6.686000000
C    -2.447000000    -1.993000000     6.177000000
C    -1.565000000    -2.659000000     5.493000000
H    -0.592000000    -2.184000000     5.397000000
C    -3.657000000    -2.533000000     6.512000000
H    -4.320000000    -1.887000000     7.082000000
C    -3.988000000    -3.820000000     6.098000000
H    -4.936000000    -4.275000000     6.374000000
C    -3.063000000    -4.501000000     5.333000000
H    -3.264000000    -5.497000000     4.945000000
C    -1.866000000    -3.902000000     5.042000000
O    -0.911000000    -4.652000000     4.412000000
C    -0.614000000    -4.574000000     3.064000000
C     0.608000000    -5.067000000     2.622000000
H     1.426000000    -5.363000000     3.274000000
C     0.958000000    -5.079000000     1.262000000
O     2.171000000    -5.678000000     0.906000000
C     2.491000000    -6.095000000    -0.365000000
C     3.299000000    -5.285000000    -1.092000000
H     3.575000000    -4.284000000    -0.771000000
C     2.147000000    -7.385000000    -0.762000000
H     1.510000000    -7.955000000    -0.091000000
C     2.619000000    -7.933000000    -1.924000000
H     2.331000000    -8.927000000    -2.256000000
C     3.457000000    -7.152000000    -2.739000000
H     3.882000000    -7.509000000    -3.673000000
C     3.670000000    -5.813000000    -2.355000000
O     4.527000000    -5.053000000    -3.131000000
C     4.418000000    -3.679000000    -3.380000000
C     5.497000000    -2.842000000    -3.105000000
H     6.494000000    -3.212000000    -2.878000000
C     5.367000000    -1.443000000    -3.317000000
O     6.449000000    -0.616000000    -3.142000000
C     6.412000000     0.681000000    -2.738000000
C     6.619000000     1.781000000    -3.568000000
H     6.825000000     1.691000000    -4.632000000
C     6.496000000     3.068000000    -2.970000000
H     6.802000000     3.882000000    -3.622000000
C     6.082000000     3.205000000    -1.648000000
H     5.882000000     4.199000000    -1.258000000
C     5.864000000     2.045000000    -0.908000000
C     6.153000000     0.828000000    -1.365000000
H     5.961000000     0.015000000    -0.669000000
C     1.304000000    -1.624000000     2.582000000
H     1.279000000    -2.083000000     3.567000000
C     0.094000000    -1.110000000     2.059000000
H    -0.814000000    -1.228000000     2.645000000
C     0.103000000    -0.568000000     0.759000000
H    -0.832000000    -0.081000000     0.422000000
C     1.279000000    -0.360000000     0.112000000
H     1.212000000     0.034000000    -0.898000000
C     2.480000000    -0.810000000     0.675000000
H     3.407000000    -0.627000000     0.137000000
C     2.560000000    -1.464000000     1.926000000
C     3.848000000    -1.830000000     2.634000000
O     4.925000000    -1.504000000     2.148000000
O     3.822000000    -2.456000000     3.674000000
O     1.766000000    -2.847000000     8.834000000
H     2.047000000    -2.572000000     7.962000000
H     1.367000000    -2.065000000     9.215000000
O     5.630000000    -3.968000000     1.458000000
H     5.148000000    -4.420000000     2.150000000
H     5.489000000    -3.038000000     1.635000000
O     8.111000000    -5.139000000     1.960000000
H     7.847000000    -5.449000000     2.826000000
H     7.778000000    -4.243000000     1.915000000
O     4.072000000     0.824000000     5.184000000
H     4.383000000    -0.050000000     4.951000000
H     3.214000000     0.675000000     5.581000000
O     5.980000000    -2.802000000     5.174000000
H     6.543000000    -2.065000000     4.938000000
H     5.302000000    -2.811000000     4.499000000
O     6.363000000     1.500000000     3.988000000
H     5.438000000     1.323000000     4.160000000
H     6.411000000     2.452000000     3.896000000
O     1.232000000     0.379000000     5.365000000
H     0.981000000     0.943000000     4.633000000
H     1.076000000     0.914000000     6.143000000
O     6.728000000    -6.111000000     5.415000000
H     6.432000000    -6.834000000     4.862000000
H     6.180000000    -5.371000000     5.155000000
O     8.645000000    -2.544000000     0.910000000
H     8.264000000    -1.857000000     1.456000000
H     8.145000000    -2.507000000     0.095000000
O     4.305000000    -5.050000000     3.539000000
H     3.888000000    -5.396000000     4.328000000
H     4.040000000    -4.131000000     3.511000000
O     3.637000000     3.140000000     6.697000000
H     3.717000000     3.945000000     6.186000000
H     3.938000000     2.450000000     6.106000000
O     7.413000000    -4.505000000    -0.761000000
H     8.188000000    -4.451000000    -0.202000000
H     6.694000000    -4.207000000    -0.204000000
O     2.380000000    -1.967000000     6.330000000
H     2.480000000    -2.335000000     5.452000000
H     2.003000000    -1.099000000     6.185000000
O     7.138000000    -0.255000000     1.647000000
H     6.926000000     0.627000000     1.952000000
H     6.428000000    -0.802000000     1.983000000
O     5.353000000    -7.495000000     2.550000000
H     5.101000000    -8.121000000     3.228000000
H     4.945000000    -6.672000000     2.820000000
O     5.032000000    -4.066000000     7.414000000
H     5.340000000    -3.711000000     6.579000000
H     4.812000000    -3.293000000     7.935000000
O     3.290000000    -5.885000000     6.243000000
H     2.366000000    -5.653000000     6.343000000
H     3.741000000    -5.365000000     6.909000000
O     0.674000000     1.868000000     2.911000000
H     1.261000000     2.406000000     2.381000000
H     0.657000000     1.021000000     2.464000000
O     7.599000000    -0.632000000     4.992000000
H     8.466000000    -0.513000000     4.604000000
H     7.041000000    -0.009000000     4.527000000
