215
-1480.10504
C    -3.224000000     2.352000000     3.454000000
H    -4.054000000     1.694000000     3.207000000
C    -2.624000000     3.126000000     2.428000000
C    -1.544000000     3.933000000     2.616000000
H    -1.001000000     4.385000000     1.789000000
C    -3.079000000     2.846000000     1.024000000
O    -4.364000000     2.257000000     0.935000000
H    -2.411000000     2.098000000     0.570000000
O    -2.995000000     4.085000000     0.199000000
C    -2.421000000     3.963000000    -1.087000000
C    -1.168000000     4.424000000    -1.319000000
H    -0.689000000     5.127000000    -0.643000000
C    -0.487000000     4.010000000    -2.494000000
O     0.860000000     4.334000000    -2.655000000
C    -1.145000000     3.271000000    -3.472000000
C    -0.441000000     2.823000000    -4.725000000
H    -1.108000000     2.630000000    -5.568000000
C     0.381000000     1.532000000    -4.581000000
C    -0.067000000     0.318000000    -5.050000000
H    -1.091000000     0.341000000    -5.414000000
H     0.199000000     3.620000000    -5.108000000
C    -2.533000000     2.983000000    -3.309000000
H    -3.161000000     2.501000000    -4.054000000
C    -3.073000000     3.200000000    -2.090000000
C    -4.474000000     2.686000000    -1.796000000
H    -5.168000000     2.625000000    -2.637000000
H    -4.971000000     3.419000000    -1.156000000
C    -4.514000000     1.268000000    -1.207000000
C    -4.502000000     0.117000000    -1.981000000
H    -4.529000000     0.207000000    -3.064000000
C    -4.459000000     1.120000000     0.137000000
C    -4.326000000    -0.116000000     0.722000000
H    -4.306000000    -0.171000000     1.807000000
C    -4.228000000    -1.272000000    -0.060000000
O    -4.083000000    -2.488000000     0.532000000
C    -2.735000000    -3.015000000     0.509000000
C    -2.368000000    -3.671000000     1.867000000
C    -1.494000000    -4.748000000     1.988000000
H    -1.221000000    -5.358000000     1.131000000
C    -2.802000000    -2.928000000     3.007000000
H    -3.492000000    -2.094000000     2.909000000
O    -2.646000000    -3.964000000    -0.607000000
H    -2.020000000    -2.193000000     0.357000000
C    -4.371000000    -1.177000000    -1.462000000
C    -4.264000000    -2.415000000    -2.407000000
H    -4.725000000    -2.145000000    -3.359000000
H    -4.802000000    -3.317000000    -2.106000000
C    -2.816000000    -2.708000000    -2.731000000
C    -2.198000000    -2.305000000    -3.894000000
H    -2.732000000    -1.607000000    -4.534000000
C    -2.124000000    -3.504000000    -1.790000000
C    -0.815000000    -3.876000000    -1.985000000
H    -0.257000000    -4.515000000    -1.305000000
C    -0.175000000    -3.459000000    -3.162000000
O     1.193000000    -3.719000000    -3.207000000
C     2.064000000    -2.699000000    -2.738000000
C     3.202000000    -3.242000000    -1.866000000
C     2.997000000    -4.397000000    -1.087000000
H     2.083000000    -4.985000000    -1.084000000
C     4.428000000    -2.543000000    -1.713000000
H     4.604000000    -1.618000000    -2.257000000
O     2.535000000    -2.018000000    -3.884000000
H     1.433000000    -2.051000000    -2.112000000
C    -0.872000000    -2.713000000    -4.100000000
C    -0.053000000    -2.194000000    -5.290000000
H    -0.735000000    -1.997000000    -6.120000000
H     0.760000000    -2.829000000    -5.648000000
C     0.629000000    -0.840000000    -4.896000000
C     1.886000000    -0.840000000    -4.308000000
C     2.392000000     0.378000000    -3.846000000
H     3.351000000     0.348000000    -3.335000000
C     1.596000000     1.512000000    -3.903000000
O     2.202000000     2.679000000    -3.379000000
C     1.773000000     3.303000000    -2.233000000
H     1.185000000     2.577000000    -1.651000000
C     2.827000000     3.782000000    -1.304000000
C     2.655000000     5.019000000    -0.639000000
H     1.740000000     5.603000000    -0.694000000
C     3.919000000     2.941000000    -1.010000000
H     3.978000000     1.963000000    -1.481000000
C     4.816000000     3.281000000     0.025000000
O     5.813000000     2.357000000     0.348000000
C     4.635000000     4.464000000     0.698000000
H     5.254000000     4.859000000     1.500000000
C     3.580000000     5.296000000     0.405000000
O     3.318000000     6.370000000     1.173000000
C     2.079000000     6.531000000     1.819000000
C     1.621000000     5.551000000     2.706000000
H     2.208000000     4.664000000     2.929000000
C     1.396000000     7.707000000     1.667000000
H     1.906000000     8.450000000     1.058000000
C     0.281000000     7.931000000     2.397000000
H    -0.135000000     8.928000000     2.281000000
C    -0.316000000     6.933000000     3.150000000
H    -1.240000000     7.118000000     3.690000000
C     0.421000000     5.758000000     3.326000000
O    -0.068000000     4.865000000     4.262000000
C    -1.126000000     4.051000000     3.918000000
C    -1.762000000     3.384000000     4.966000000
H    -1.438000000     3.620000000     5.977000000
C    -2.699000000     2.437000000     4.741000000
O    -3.240000000     1.783000000     5.812000000
C    -3.810000000     0.502000000     5.596000000
C    -2.998000000    -0.596000000     5.469000000
H    -1.911000000    -0.552000000     5.473000000
C    -5.184000000     0.375000000     5.738000000
H    -5.786000000     1.268000000     5.890000000
C    -5.773000000    -0.906000000     5.746000000
H    -6.840000000    -1.050000000     5.893000000
C    -4.859000000    -1.971000000     5.670000000
H    -5.290000000    -2.968000000     5.624000000
C    -3.516000000    -1.863000000     5.483000000
O    -2.729000000    -2.915000000     5.405000000
C    -2.400000000    -3.455000000     4.269000000
C    -1.458000000    -4.448000000     4.356000000
H    -1.185000000    -4.737000000     5.368000000
C    -0.899000000    -5.089000000     3.235000000
O    -0.042000000    -6.164000000     3.366000000
C     0.771000000    -6.627000000     2.317000000
C     1.967000000    -6.053000000     1.979000000
H     2.226000000    -5.101000000     2.436000000
C     0.329000000    -7.726000000     1.543000000
H    -0.605000000    -8.220000000     1.798000000
C     0.980000000    -8.201000000     0.425000000
H     0.550000000    -9.009000000    -0.162000000
C     2.153000000    -7.502000000     0.060000000
H     2.735000000    -7.843000000    -0.792000000
C     2.688000000    -6.467000000     0.870000000
O     3.872000000    -5.869000000     0.617000000
C     3.996000000    -4.778000000    -0.196000000
C     5.210000000    -4.137000000    -0.109000000
H     5.918000000    -4.526000000     0.617000000
C     5.476000000    -3.015000000    -0.828000000
O     6.707000000    -2.331000000    -0.604000000
C     6.888000000    -0.999000000    -0.994000000
C     7.485000000    -0.648000000    -2.153000000
H     8.078000000    -1.308000000    -2.781000000
C     7.359000000     0.647000000    -2.606000000
H     7.737000000     0.859000000    -3.603000000
C     6.776000000     1.637000000    -1.830000000
H     6.798000000     2.684000000    -2.119000000
C     6.321000000     1.338000000    -0.521000000
C     6.303000000     0.027000000    -0.138000000
H     5.698000000    -0.256000000     0.719000000
C     0.444000000    -1.271000000     2.687000000
H     0.085000000    -1.517000000     3.683000000
C    -0.515000000    -0.728000000     1.878000000
H    -1.529000000    -0.601000000     2.249000000
C    -0.193000000    -0.439000000     0.559000000
H    -0.971000000    -0.109000000    -0.093000000
C     1.111000000    -0.637000000     0.106000000
H     1.372000000    -0.509000000    -0.941000000
C     2.068000000    -1.155000000     0.893000000
H     3.037000000    -1.393000000     0.463000000
C     1.774000000    -1.374000000     2.231000000
C     2.834000000    -1.820000000     3.190000000
O     4.001000000    -1.858000000     2.826000000
O     2.451000000    -1.831000000     4.339000000
O     6.168000000    -1.959000000     7.568000000
H     5.796000000    -1.410000000     8.258000000
H     5.409000000    -2.264000000     7.071000000
O     5.914000000    -3.337000000     2.527000000
H     6.546000000    -2.701000000     2.192000000
H     5.073000000    -2.880000000     2.491000000
O     1.526000000    -2.658000000     8.839000000
H     1.098000000    -2.426000000     8.015000000
H     1.220000000    -1.999000000     9.462000000
O     0.664000000    -7.094000000     6.123000000
H     1.589000000    -7.248000000     5.935000000
H     0.289000000    -6.831000000     5.283000000
O     3.538000000     0.063000000     5.904000000
H     3.242000000    -0.678000000     5.375000000
H     2.731000000     0.503000000     6.171000000
O     7.272000000     1.902000000     2.944000000
H     7.780000000     1.784000000     2.142000000
H     6.948000000     1.026000000     3.153000000
O     0.814000000     0.933000000     6.288000000
H     0.613000000     1.633000000     6.910000000
H     0.900000000     1.378000000     5.445000000
O     4.882000000     2.994000000     3.675000000
H     4.420000000     2.333000000     3.158000000
H     5.792000000     2.699000000     3.682000000
O     4.135000000    -3.314000000     5.923000000
H     3.411000000    -2.832000000     5.523000000
H     4.836000000    -3.274000000     5.272000000
O     3.081000000     2.374000000     8.477000000
H     3.481000000     3.182000000     8.798000000
H     3.003000000     2.504000000     7.532000000
O     0.756000000    -1.754000000     6.358000000
H     1.306000000    -1.853000000     5.580000000
H     0.798000000    -0.820000000     6.563000000
O     3.078000000    -6.885000000     4.956000000
H     3.608000000    -6.213000000     4.527000000
H     3.626000000    -7.198000000     5.676000000
O     8.182000000    -1.340000000     4.562000000
H     8.398000000    -1.529000000     5.475000000
H     7.239000000    -1.175000000     4.568000000
O     5.686000000    -0.261000000     3.960000000
H     5.094000000     0.092000000     4.625000000
H     5.140000000    -0.854000000     3.444000000
O     3.825000000    -3.893000000     8.581000000
H     3.886000000    -3.834000000     7.627000000
H     3.028000000    -3.410000000     8.800000000
O     5.264000000     0.870000000     7.728000000
H     4.834000000     0.460000000     6.978000000
H     4.594000000     0.884000000     8.411000000
O     1.334000000     1.895000000     3.707000000
H     0.449000000     2.154000000     3.448000000
H     1.460000000     1.036000000     3.303000000
O     2.990000000     3.276000000     5.860000000
H     3.732000000     3.217000000     5.258000000
H     2.220000000     3.164000000     5.303000000
O     5.461000000    -5.726000000     3.797000000
H     6.005000000    -6.313000000     3.272000000
H     5.512000000    -4.884000000     3.346000000
