215
-1450.56807
C    -2.833000000    -1.030000000     4.239000000
H    -3.293000000    -1.841000000     3.680000000
C    -2.892000000     0.274000000     3.768000000
C    -2.245000000     1.273000000     4.555000000
H    -2.141000000     2.302000000     4.219000000
C    -3.534000000     0.603000000     2.442000000
O    -4.483000000    -0.440000000     2.053000000
H    -2.632000000     0.602000000     1.813000000
O    -4.126000000     1.888000000     2.396000000
C    -3.864000000     2.596000000     1.221000000
C    -2.866000000     3.514000000     1.359000000
H    -2.398000000     3.616000000     2.335000000
C    -2.334000000     4.138000000     0.251000000
O    -1.070000000     4.784000000     0.394000000
C    -2.876000000     3.846000000    -0.995000000
C    -2.422000000     4.501000000    -2.300000000
H    -3.241000000     4.606000000    -3.015000000
C    -1.144000000     3.792000000    -2.925000000
C    -1.462000000     2.876000000    -3.997000000
H    -2.485000000     2.772000000    -4.348000000
H    -2.133000000     5.529000000    -2.070000000
C    -3.948000000     2.947000000    -1.123000000
H    -4.416000000     2.733000000    -2.080000000
C    -4.414000000     2.254000000    -0.039000000
C    -5.424000000     1.074000000    -0.212000000
H    -6.078000000     1.361000000    -1.037000000
H    -6.108000000     0.936000000     0.628000000
C    -4.798000000    -0.292000000    -0.318000000
C    -4.592000000    -0.828000000    -1.603000000
H    -4.835000000    -0.150000000    -2.417000000
C    -4.387000000    -0.996000000     0.797000000
C    -3.811000000    -2.276000000     0.597000000
H    -3.494000000    -2.813000000     1.487000000
C    -3.678000000    -2.843000000    -0.708000000
O    -2.816000000    -3.945000000    -0.880000000
C    -1.460000000    -3.626000000    -1.234000000
C    -0.421000000    -4.403000000    -0.302000000
C     0.789000000    -4.811000000    -0.811000000
H     1.012000000    -4.697000000    -1.869000000
C    -0.702000000    -4.621000000     1.038000000
H    -1.707000000    -4.377000000     1.372000000
O    -1.370000000    -4.043000000    -2.681000000
H    -1.267000000    -2.546000000    -1.155000000
C    -4.065000000    -2.138000000    -1.832000000
C    -3.893000000    -2.685000000    -3.240000000
H    -4.640000000    -2.292000000    -3.932000000
H    -3.970000000    -3.774000000    -3.217000000
C    -2.519000000    -2.274000000    -3.809000000
C    -2.318000000    -1.029000000    -4.305000000
H    -3.225000000    -0.456000000    -4.479000000
C    -1.369000000    -3.063000000    -3.547000000
C    -0.113000000    -2.623000000    -3.944000000
H     0.743000000    -3.233000000    -3.669000000
C     0.066000000    -1.399000000    -4.611000000
O     1.341000000    -1.023000000    -4.848000000
C     1.886000000    -0.151000000    -3.850000000
C     3.337000000    -0.519000000    -3.442000000
C     3.775000000    -1.794000000    -3.592000000
H     3.176000000    -2.565000000    -4.070000000
C     4.174000000     0.431000000    -2.940000000
H     3.698000000     1.405000000    -2.858000000
O     1.807000000     1.226000000    -4.363000000
H     1.230000000    -0.161000000    -2.967000000
C    -1.038000000    -0.583000000    -4.717000000
C    -0.920000000     0.789000000    -5.374000000
H    -1.907000000     1.030000000    -5.776000000
H    -0.227000000     0.733000000    -6.216000000
C    -0.543000000     1.950000000    -4.472000000
C     0.763000000     2.023000000    -3.890000000
C     1.047000000     2.847000000    -2.799000000
H     2.031000000     2.783000000    -2.341000000
C     0.127000000     3.751000000    -2.362000000
O     0.515000000     4.481000000    -1.240000000
C     0.155000000     4.018000000     0.073000000
H    -0.088000000     2.946000000     0.068000000
C     1.272000000     4.262000000     1.044000000
C     0.994000000     4.612000000     2.354000000
H    -0.036000000     4.628000000     2.702000000
C     2.630000000     4.245000000     0.572000000
H     2.838000000     4.189000000    -0.493000000
C     3.647000000     4.651000000     1.427000000
O     4.914000000     4.748000000     0.921000000
C     3.336000000     4.915000000     2.778000000
H     4.190000000     5.080000000     3.430000000
C     2.038000000     4.881000000     3.239000000
O     1.856000000     5.252000000     4.603000000
C     0.740000000     4.920000000     5.299000000
C     0.410000000     3.548000000     5.445000000
H     1.030000000     2.758000000     5.028000000
C    -0.089000000     5.917000000     5.791000000
H     0.175000000     6.966000000     5.676000000
C    -1.302000000     5.480000000     6.399000000
H    -2.088000000     6.217000000     6.542000000
C    -1.566000000     4.180000000     6.703000000
H    -2.490000000     3.947000000     7.225000000
C    -0.704000000     3.228000000     6.263000000
O    -0.994000000     1.943000000     6.616000000
C    -1.653000000     1.042000000     5.786000000
C    -1.730000000    -0.240000000     6.274000000
H    -1.236000000    -0.513000000     7.203000000
C    -2.330000000    -1.236000000     5.523000000
O    -2.410000000    -2.470000000     6.103000000
C    -2.368000000    -3.616000000     5.441000000
C    -1.286000000    -3.940000000     4.651000000
H    -0.390000000    -3.327000000     4.701000000
C    -3.485000000    -4.476000000     5.384000000
H    -4.351000000    -4.201000000     5.980000000
C    -3.489000000    -5.656000000     4.647000000
H    -4.358000000    -6.299000000     4.527000000
C    -2.346000000    -6.006000000     3.903000000
H    -2.256000000    -6.959000000     3.388000000
C    -1.228000000    -5.132000000     3.866000000
O    -0.070000000    -5.471000000     3.224000000
C     0.218000000    -5.188000000     1.912000000
C     1.369000000    -5.653000000     1.354000000
H     1.985000000    -6.252000000     2.020000000
C     1.685000000    -5.401000000     0.068000000
O     2.755000000    -6.028000000    -0.502000000
C     3.418000000    -5.797000000    -1.702000000
C     4.260000000    -4.675000000    -1.968000000
H     4.291000000    -3.871000000    -1.237000000
C     3.416000000    -6.874000000    -2.591000000
H     2.761000000    -7.683000000    -2.278000000
C     4.253000000    -6.833000000    -3.733000000
H     4.384000000    -7.670000000    -4.413000000
C     5.042000000    -5.700000000    -3.964000000
H     5.671000000    -5.658000000    -4.850000000
C     5.030000000    -4.589000000    -3.163000000
O     5.597000000    -3.368000000    -3.429000000
C     5.084000000    -2.094000000    -3.255000000
C     5.963000000    -1.161000000    -2.728000000
H     7.001000000    -1.445000000    -2.579000000
C     5.471000000     0.128000000    -2.522000000
O     6.311000000     1.177000000    -2.002000000
C     5.951000000     2.573000000    -1.876000000
C     5.506000000     3.277000000    -2.976000000
H     5.569000000     2.838000000    -3.968000000
C     5.111000000     4.609000000    -2.778000000
H     4.801000000     5.249000000    -3.600000000
C     4.953000000     5.155000000    -1.440000000
H     4.554000000     6.150000000    -1.258000000
C     5.229000000     4.307000000    -0.375000000
C     5.841000000     3.067000000    -0.540000000
H     6.069000000     2.434000000     0.313000000
C     0.829000000    -1.764000000     1.508000000
H     0.594000000    -2.537000000     2.235000000
C    -0.158000000    -0.992000000     0.790000000
H    -1.203000000    -1.168000000     1.031000000
C     0.213000000    -0.114000000    -0.254000000
H    -0.441000000     0.423000000    -0.968000000
C     1.570000000     0.110000000    -0.484000000
H     1.774000000     0.867000000    -1.237000000
C     2.540000000    -0.508000000     0.279000000
H     3.570000000    -0.171000000     0.194000000
C     2.194000000    -1.426000000     1.297000000
C     3.319000000    -2.148000000     2.116000000
O     4.446000000    -1.720000000     2.063000000
O     3.147000000    -3.111000000     2.867000000
O     4.376000000     2.090000000     5.006000000
H     5.118000000     2.500000000     4.561000000
H     4.765000000     1.377000000     5.513000000
O     6.034000000    -3.638000000     0.449000000
H     6.780000000    -3.064000000     0.275000000
H     5.400000000    -3.077000000     0.897000000
O     4.783000000    -1.201000000     6.167000000
H     4.486000000    -2.104000000     6.050000000
H     4.488000000    -0.965000000     7.047000000
O     7.089000000    -5.608000000     4.243000000
H     6.659000000    -5.612000000     3.388000000
H     6.511000000    -5.086000000     4.799000000
O     6.097000000    -2.838000000     3.662000000
H     5.347000000    -2.791000000     3.069000000
H     6.589000000    -2.035000000     3.489000000
O     6.699000000    -6.095000000    -0.640000000
H     7.335000000    -5.812000000    -1.298000000
H     6.310000000    -5.282000000    -0.318000000
O     6.657000000    -4.629000000     8.002000000
H     5.855000000    -4.399000000     7.534000000
H     6.737000000    -5.576000000     7.890000000
O     6.850000000     2.703000000     3.353000000
H     6.510000000     1.930000000     2.902000000
H     7.565000000     3.011000000     2.795000000
O     1.974000000    -1.826000000     4.984000000
H     2.210000000    -0.899000000     4.989000000
H     2.341000000    -2.163000000     4.166000000
O     4.941000000    -4.420000000     5.714000000
H     4.977000000    -4.100000000     4.812000000
H     4.027000000    -4.303000000     5.973000000
O     1.102000000    -5.962000000     6.874000000
H     1.543000000    -5.210000000     6.478000000
H     0.511000000    -6.280000000     6.192000000
O     7.394000000    -0.156000000     6.083000000
H     6.640000000    -0.729000000     5.946000000
H     7.509000000    -0.135000000     7.033000000
O     5.176000000    -8.048000000     4.044000000
H     4.870000000    -7.298000000     3.534000000
H     5.802000000    -8.489000000     3.469000000
O     5.775000000     0.478000000     1.717000000
H     6.095000000     0.124000000     0.887000000
H     5.285000000    -0.243000000     2.112000000
O     4.703000000    -5.770000000     2.667000000
H     4.163000000    -5.000000000     2.490000000
H     5.141000000    -5.952000000     1.836000000
O     2.630000000    -3.595000000     6.993000000
H     2.100000000    -2.975000000     6.492000000
H     2.340000000    -3.480000000     7.898000000
O     8.642000000    -3.056000000     0.046000000
H     8.327000000    -3.949000000    -0.089000000
H     9.590000000    -3.147000000     0.137000000
O     2.026000000     0.547000000     3.764000000
H     2.900000000     0.929000000     3.689000000
H     1.826000000     0.232000000     2.882000000
O     9.329000000    -4.401000000     2.700000000
H     9.768000000    -3.578000000     2.916000000
H     8.478000000    -4.340000000     3.136000000
