215
-1460.31350
C    -2.679000000    -0.566000000     4.636000000
H    -3.375000000    -1.302000000     4.241000000
C    -2.528000000     0.665000000     3.968000000
C    -1.623000000     1.621000000     4.487000000
H    -1.481000000     2.586000000     4.007000000
C    -3.194000000     0.884000000     2.609000000
O    -4.247000000    -0.134000000     2.444000000
H    -2.363000000     0.659000000     1.924000000
O    -3.660000000     2.191000000     2.387000000
C    -3.378000000     2.736000000     1.160000000
C    -2.290000000     3.619000000     1.093000000
H    -1.729000000     4.002000000     1.942000000
C    -1.999000000     4.198000000    -0.132000000
O    -0.889000000     4.973000000    -0.131000000
C    -2.743000000     3.937000000    -1.276000000
C    -2.280000000     4.433000000    -2.615000000
H    -3.185000000     4.568000000    -3.211000000
C    -1.219000000     3.591000000    -3.232000000
C    -1.634000000     2.500000000    -4.040000000
H    -2.681000000     2.312000000    -4.266000000
H    -1.917000000     5.463000000    -2.585000000
C    -3.851000000     3.047000000    -1.205000000
H    -4.423000000     2.609000000    -2.018000000
C    -4.231000000     2.441000000     0.022000000
C    -5.336000000     1.398000000     0.046000000
H    -6.093000000     1.624000000    -0.708000000
H    -5.913000000     1.507000000     0.966000000
C    -4.738000000     0.058000000    -0.049000000
C    -4.728000000    -0.617000000    -1.242000000
H    -4.917000000    -0.087000000    -2.172000000
C    -4.408000000    -0.658000000     1.163000000
C    -3.905000000    -1.945000000     1.045000000
H    -3.569000000    -2.514000000     1.909000000
C    -3.905000000    -2.595000000    -0.133000000
O    -3.321000000    -3.850000000    -0.268000000
C    -1.975000000    -3.951000000    -0.749000000
C    -1.096000000    -4.832000000     0.117000000
C     0.200000000    -4.901000000    -0.232000000
H     0.547000000    -4.399000000    -1.132000000
C    -1.488000000    -5.124000000     1.401000000
H    -2.512000000    -4.967000000     1.729000000
O    -1.901000000    -4.242000000    -2.195000000
H    -1.609000000    -2.932000000    -0.557000000
C    -4.310000000    -1.955000000    -1.295000000
C    -4.248000000    -2.612000000    -2.753000000
H    -5.127000000    -2.388000000    -3.361000000
H    -4.341000000    -3.680000000    -2.541000000
C    -2.911000000    -2.326000000    -3.392000000
C    -2.676000000    -1.160000000    -4.160000000
H    -3.560000000    -0.597000000    -4.449000000
C    -1.779000000    -3.101000000    -2.970000000
C    -0.502000000    -2.784000000    -3.495000000
H     0.294000000    -3.507000000    -3.344000000
C    -0.308000000    -1.635000000    -4.278000000
O     0.981000000    -1.286000000    -4.703000000
C     1.689000000    -0.290000000    -3.928000000
C     3.151000000    -0.695000000    -3.716000000
C     3.401000000    -2.082000000    -3.519000000
H     2.570000000    -2.781000000    -3.468000000
C     4.108000000     0.250000000    -3.511000000
H     3.953000000     1.310000000    -3.692000000
O     1.642000000     0.994000000    -4.729000000
H     1.269000000    -0.168000000    -2.919000000
C    -1.383000000    -0.788000000    -4.526000000
C    -1.039000000     0.482000000    -5.409000000
H    -1.995000000     0.676000000    -5.900000000
H    -0.291000000     0.249000000    -6.170000000
C    -0.638000000     1.660000000    -4.561000000
C     0.677000000     1.908000000    -4.315000000
C     1.081000000     2.928000000    -3.505000000
H     2.143000000     3.096000000    -3.343000000
C     0.131000000     3.770000000    -2.882000000
O     0.582000000     4.719000000    -1.961000000
C     0.376000000     4.384000000    -0.582000000
H     0.219000000     3.296000000    -0.522000000
C     1.625000000     4.669000000     0.327000000
C     1.404000000     5.241000000     1.580000000
H     0.427000000     5.577000000     1.918000000
C     2.813000000     4.044000000    -0.055000000
H     2.847000000     3.706000000    -1.088000000
C     3.826000000     4.050000000     0.868000000
O     4.983000000     3.212000000     0.583000000
C     3.728000000     4.792000000     2.014000000
H     4.527000000     4.640000000     2.736000000
C     2.493000000     5.379000000     2.381000000
O     2.364000000     5.798000000     3.689000000
C     1.519000000     5.412000000     4.652000000
C     1.358000000     4.031000000     4.955000000
H     1.992000000     3.333000000     4.413000000
C     0.657000000     6.320000000     5.220000000
H     0.703000000     7.357000000     4.896000000
C    -0.318000000     5.853000000     6.069000000
H    -0.904000000     6.572000000     6.636000000
C    -0.569000000     4.486000000     6.353000000
H    -1.316000000     4.242000000     7.104000000
C     0.327000000     3.508000000     5.809000000
O     0.227000000     2.145000000     6.050000000
C    -0.782000000     1.305000000     5.595000000
C    -1.059000000     0.070000000     6.248000000
H    -0.430000000    -0.194000000     7.095000000
C    -1.954000000    -0.858000000     5.735000000
O    -1.920000000    -2.119000000     6.286000000
C    -2.412000000    -3.289000000     5.631000000
C    -1.510000000    -4.172000000     5.104000000
H    -0.447000000    -4.022000000     5.278000000
C    -3.791000000    -3.607000000     5.508000000
H    -4.511000000    -2.941000000     5.977000000
C    -4.237000000    -4.825000000     4.926000000
H    -5.271000000    -5.147000000     5.016000000
C    -3.257000000    -5.573000000     4.230000000
H    -3.515000000    -6.479000000     3.687000000
C    -1.912000000    -5.269000000     4.320000000
O    -0.918000000    -6.008000000     3.589000000
C    -0.607000000    -5.736000000     2.296000000
C     0.716000000    -5.945000000     1.884000000
H     1.416000000    -6.391000000     2.586000000
C     1.134000000    -5.496000000     0.634000000
O     2.478000000    -5.647000000     0.326000000
C     2.952000000    -5.654000000    -0.988000000
C     3.816000000    -4.678000000    -1.482000000
H     4.141000000    -3.873000000    -0.829000000
C     2.689000000    -6.746000000    -1.729000000
H     2.178000000    -7.652000000    -1.416000000
C     3.080000000    -6.789000000    -3.057000000
H     2.867000000    -7.651000000    -3.683000000
C     3.817000000    -5.788000000    -3.648000000
H     4.057000000    -5.773000000    -4.708000000
C     4.211000000    -4.752000000    -2.818000000
O     5.075000000    -3.815000000    -3.275000000
C     4.710000000    -2.515000000    -3.357000000
C     5.673000000    -1.531000000    -3.283000000
H     6.696000000    -1.899000000    -3.288000000
C     5.371000000    -0.198000000    -3.276000000
O     6.497000000     0.651000000    -3.232000000
C     6.239000000     1.858000000    -2.543000000
C     6.560000000     3.034000000    -3.233000000
H     6.948000000     3.007000000    -4.248000000
C     6.411000000     4.266000000    -2.606000000
H     6.668000000     5.233000000    -3.031000000
C     5.855000000     4.272000000    -1.285000000
H     5.717000000     5.203000000    -0.741000000
C     5.602000000     3.081000000    -0.580000000
C     5.784000000     1.874000000    -1.213000000
H     5.500000000     0.947000000    -0.720000000
C     1.248000000    -1.737000000     1.075000000
H     1.329000000    -2.586000000     1.750000000
C     0.065000000    -1.119000000     0.784000000
H    -0.893000000    -1.547000000     1.070000000
C     0.039000000    -0.032000000    -0.064000000
H    -0.954000000     0.484000000    -0.143000000
C     1.211000000     0.491000000    -0.566000000
H     1.086000000     1.437000000    -1.087000000
C     2.436000000    -0.066000000    -0.218000000
H     3.317000000     0.436000000    -0.609000000
C     2.450000000    -1.186000000     0.641000000
C     3.867000000    -1.766000000     1.084000000
O     4.878000000    -1.073000000     0.921000000
O     3.968000000    -2.878000000     1.632000000
O     6.749000000    -2.760000000    -0.200000000
H     7.471000000    -2.297000000     0.226000000
H     5.964000000    -2.290000000     0.081000000
O     7.280000000    -5.005000000    -1.675000000
H     7.613000000    -5.685000000    -1.090000000
H     6.887000000    -4.357000000    -1.090000000
O     3.752000000     1.354000000     3.091000000
H     4.177000000     0.896000000     2.365000000
H     4.475000000     1.668000000     3.633000000
O     9.347000000    -0.612000000     3.233000000
H    10.088000000    -0.224000000     3.698000000
H     8.584000000    -0.381000000     3.763000000
O     5.771000000    -1.644000000     3.540000000
H     6.287000000    -2.451000000     3.552000000
H     5.209000000    -1.730000000     2.770000000
O     7.869000000    -3.520000000     2.606000000
H     8.363000000    -4.337000000     2.533000000
H     8.363000000    -2.893000000     2.077000000
O     7.545000000     3.531000000     2.067000000
H     8.014000000     3.817000000     1.283000000
H     7.202000000     2.667000000     1.839000000
O     1.476000000    -0.104000000     4.073000000
H     2.196000000     0.274000000     3.567000000
H     0.703000000     0.384000000     3.791000000
O     3.459000000    -4.721000000     3.903000000
H     2.732000000    -4.149000000     4.148000000
H     3.740000000    -4.399000000     3.046000000
O     4.652000000    -1.942000000     6.279000000
H     4.536000000    -1.009000000     6.461000000
H     5.070000000    -1.967000000     5.418000000
O     5.647000000    -6.285000000     4.077000000
H     5.859000000    -6.011000000     3.185000000
H     4.799000000    -5.880000000     4.257000000
O     1.556000000    -3.004000000     5.046000000
H     1.386000000    -2.403000000     4.321000000
H     1.378000000    -2.487000000     5.832000000
O     6.994000000     0.869000000     1.708000000
H     7.790000000     0.901000000     1.178000000
H     6.452000000     0.202000000     1.285000000
O     5.621000000    -5.093000000     1.538000000
H     4.770000000    -4.667000000     1.431000000
H     6.239000000    -4.369000000     1.645000000
O     5.269000000    -7.818000000     0.861000000
H     5.224000000    -6.899000000     1.122000000
H     5.472000000    -7.792000000    -0.074000000
O     3.221000000     0.419000000     6.142000000
H     3.028000000     0.014000000     5.296000000
H     2.433000000     0.269000000     6.664000000
O     7.358000000    -0.094000000     5.037000000
H     6.830000000     0.656000000     5.310000000
H     6.814000000    -0.549000000     4.394000000
O     0.822000000     1.971000000     2.098000000
H     0.458000000     1.559000000     1.314000000
H     1.763000000     2.019000000     1.929000000
O     9.075000000    -1.862000000     0.483000000
H     9.171000000    -1.395000000     1.313000000
H     9.826000000    -1.580000000    -0.039000000
