215
-1463.98200
C    -1.656000000    -1.063000000     4.821000000
H    -2.264000000    -1.794000000     4.295000000
C    -1.853000000     0.255000000     4.436000000
C    -1.231000000     1.234000000     5.168000000
H    -1.217000000     2.294000000     4.929000000
C    -2.598000000     0.658000000     3.205000000
O    -3.655000000    -0.254000000     3.038000000
H    -1.979000000     0.483000000     2.313000000
O    -3.198000000     2.012000000     3.244000000
C    -3.136000000     2.793000000     2.121000000
C    -2.045000000     3.656000000     1.960000000
H    -1.408000000     3.972000000     2.782000000
C    -1.880000000     4.365000000     0.740000000
O    -0.664000000     5.009000000     0.600000000
C    -2.739000000     4.142000000    -0.305000000
C    -2.592000000     4.828000000    -1.687000000
H    -3.599000000     5.022000000    -2.062000000
C    -1.711000000     3.912000000    -2.541000000
C    -2.277000000     2.881000000    -3.298000000
H    -3.337000000     2.647000000    -3.356000000
H    -2.081000000     5.770000000    -1.479000000
C    -3.711000000     3.184000000    -0.170000000
H    -4.398000000     3.004000000    -0.993000000
C    -3.994000000     2.537000000     1.051000000
C    -5.115000000     1.514000000     1.209000000
H    -5.984000000     1.856000000     0.644000000
H    -5.553000000     1.573000000     2.208000000
C    -4.811000000     0.089000000     0.950000000
C    -4.974000000    -0.391000000    -0.379000000
H    -5.523000000     0.204000000    -1.104000000
C    -4.046000000    -0.664000000     1.836000000
C    -3.619000000    -1.991000000     1.532000000
H    -3.104000000    -2.644000000     2.233000000
C    -3.903000000    -2.460000000     0.251000000
O    -3.440000000    -3.704000000    -0.117000000
C    -2.068000000    -3.674000000    -0.654000000
C    -1.035000000    -4.644000000    -0.095000000
C     0.122000000    -4.926000000    -0.805000000
H     0.209000000    -4.346000000    -1.720000000
C    -1.208000000    -5.095000000     1.185000000
H    -2.084000000    -4.800000000     1.757000000
O    -2.405000000    -3.930000000    -2.026000000
H    -1.710000000    -2.636000000    -0.589000000
C    -4.687000000    -1.714000000    -0.686000000
C    -4.886000000    -2.238000000    -2.160000000
H    -5.673000000    -1.731000000    -2.723000000
H    -5.094000000    -3.309000000    -2.110000000
C    -3.586000000    -2.014000000    -2.900000000
C    -3.478000000    -0.780000000    -3.576000000
H    -4.361000000    -0.146000000    -3.591000000
C    -2.510000000    -2.885000000    -2.848000000
C    -1.367000000    -2.491000000    -3.562000000
H    -0.528000000    -3.163000000    -3.402000000
C    -1.267000000    -1.290000000    -4.296000000
O     0.015000000    -1.028000000    -4.811000000
C     0.941000000    -0.077000000    -4.139000000
C     2.405000000    -0.534000000    -4.166000000
C     2.781000000    -1.864000000    -4.412000000
H     2.033000000    -2.635000000    -4.582000000
C     3.430000000     0.387000000    -3.893000000
H     3.127000000     1.421000000    -3.754000000
O     0.758000000     1.272000000    -4.684000000
H     0.796000000    -0.058000000    -3.048000000
C    -2.337000000    -0.402000000    -4.304000000
C    -2.284000000     0.926000000    -4.942000000
H    -3.259000000     1.299000000    -5.262000000
H    -1.787000000     0.836000000    -5.911000000
C    -1.512000000     1.995000000    -4.114000000
C    -0.109000000     2.148000000    -4.072000000
C     0.425000000     3.162000000    -3.329000000
H     1.480000000     3.395000000    -3.441000000
C    -0.360000000     3.993000000    -2.513000000
O     0.268000000     4.859000000    -1.617000000
C     0.344000000     4.355000000    -0.246000000
H     0.214000000     3.262000000    -0.245000000
C     1.717000000     4.519000000     0.358000000
C     1.790000000     4.167000000     1.665000000
H     0.913000000     3.983000000     2.279000000
C     2.843000000     4.794000000    -0.382000000
H     2.789000000     4.883000000    -1.464000000
C     4.125000000     4.743000000     0.174000000
O     5.268000000     4.813000000    -0.627000000
C     4.230000000     4.338000000     1.549000000
H     5.220000000     4.249000000     1.989000000
C     3.078000000     4.100000000     2.277000000
O     3.172000000     3.728000000     3.614000000
C     2.204000000     3.892000000     4.551000000
C     1.664000000     2.712000000     5.115000000
H     1.842000000     1.725000000     4.696000000
C     2.094000000     5.149000000     5.133000000
H     2.631000000     6.010000000     4.741000000
C     1.311000000     5.271000000     6.291000000
H     1.008000000     6.247000000     6.662000000
C     0.675000000     4.177000000     6.826000000
H     0.014000000     4.314000000     7.679000000
C     0.936000000     2.937000000     6.285000000
O     0.428000000     1.812000000     6.892000000
C    -0.350000000     0.891000000     6.155000000
C    -0.079000000    -0.446000000     6.533000000
H     0.662000000    -0.722000000     7.279000000
C    -0.777000000    -1.413000000     5.830000000
O    -0.603000000    -2.710000000     6.305000000
C    -1.087000000    -3.858000000     5.770000000
C    -0.395000000    -4.533000000     4.732000000
H     0.583000000    -4.199000000     4.396000000
C    -2.397000000    -4.261000000     6.140000000
H    -3.010000000    -3.830000000     6.928000000
C    -2.966000000    -5.354000000     5.517000000
H    -3.895000000    -5.750000000     5.920000000
C    -2.257000000    -6.028000000     4.552000000
H    -2.821000000    -6.749000000     3.966000000
C    -0.976000000    -5.676000000     4.112000000
O    -0.327000000    -6.369000000     3.059000000
C    -0.234000000    -5.911000000     1.736000000
C     0.949000000    -6.181000000     1.045000000
H     1.730000000    -6.703000000     1.593000000
C     1.119000000    -5.677000000    -0.231000000
O     2.324000000    -5.725000000    -0.887000000
C     2.490000000    -5.610000000    -2.231000000
C     3.375000000    -4.714000000    -2.723000000
H     3.906000000    -4.069000000    -2.027000000
C     1.798000000    -6.371000000    -3.132000000
H     1.144000000    -7.167000000    -2.786000000
C     2.031000000    -6.321000000    -4.542000000
H     1.540000000    -6.998000000    -5.237000000
C     3.015000000    -5.422000000    -4.981000000
H     3.170000000    -5.338000000    -6.054000000
C     3.702000000    -4.565000000    -4.092000000
O     4.514000000    -3.519000000    -4.439000000
C     4.139000000    -2.217000000    -4.250000000
C     5.112000000    -1.319000000    -3.823000000
H     6.121000000    -1.527000000    -3.476000000
C     4.760000000    -0.005000000    -3.657000000
O     5.678000000     0.807000000    -3.088000000
C     5.634000000     2.157000000    -3.103000000
C     6.017000000     2.910000000    -4.211000000
H     6.288000000     2.561000000    -5.204000000
C     6.057000000     4.288000000    -4.121000000
H     6.302000000     4.929000000    -4.965000000
C     5.830000000     4.908000000    -2.910000000
H     5.985000000     5.981000000    -2.836000000
C     5.395000000     4.247000000    -1.804000000
C     5.349000000     2.846000000    -1.878000000
H     4.988000000     2.354000000    -0.979000000
C     1.612000000    -1.708000000     0.469000000
H     1.449000000    -2.620000000     1.038000000
C     0.508000000    -0.751000000     0.479000000
H    -0.416000000    -0.991000000     0.999000000
C     0.686000000     0.482000000    -0.073000000
H    -0.108000000     1.251000000     0.019000000
C     1.903000000     0.839000000    -0.603000000
H     2.044000000     1.825000000    -1.037000000
C     2.990000000    -0.011000000    -0.578000000
H     3.924000000     0.318000000    -1.027000000
C     2.836000000    -1.380000000    -0.063000000
C     4.084000000    -2.287000000     0.007000000
O     5.084000000    -2.041000000    -0.696000000
O     4.103000000    -3.229000000     0.748000000
O     3.051000000    -1.882000000     3.888000000
H     3.232000000    -1.074000000     3.408000000
H     2.539000000    -1.600000000     4.646000000
O     4.934000000     0.630000000     5.515000000
H     4.181000000     0.567000000     4.928000000
H     4.575000000     0.989000000     6.327000000
O     6.705000000    -3.600000000    -1.962000000
H     7.412000000    -3.569000000    -1.317000000
H     6.026000000    -3.030000000    -1.600000000
O     8.663000000    -0.802000000    -3.313000000
H     7.897000000    -0.410000000    -2.894000000
H     9.289000000    -0.927000000    -2.600000000
O     7.198000000    -1.233000000     4.435000000
H     6.324000000    -0.854000000     4.534000000
H     7.465000000    -1.453000000     5.327000000
O     6.491000000    -2.982000000     1.928000000
H     5.600000000    -3.031000000     1.583000000
H     6.440000000    -2.336000000     2.633000000
O     5.581000000     1.116000000     1.432000000
H     5.818000000     0.452000000     0.785000000
H     6.372000000     1.645000000     1.533000000
O     3.263000000    -4.337000000     3.069000000
H     3.099000000    -3.458000000     3.408000000
H     3.228000000    -4.238000000     2.118000000
O     5.827000000    -6.649000000     3.601000000
H     5.396000000    -7.495000000     3.479000000
H     5.161000000    -6.004000000     3.366000000
O     5.406000000    -3.572000000     5.913000000
H     4.861000000    -3.550000000     5.126000000
H     6.287000000    -3.759000000     5.588000000
O     7.056000000    -0.385000000    -0.405000000
H     7.819000000    -0.959000000    -0.335000000
H     6.367000000    -0.945000000    -0.761000000
O     5.021000000    -6.036000000     0.564000000
H     4.701000000    -5.149000000     0.728000000
H     4.231000000    -6.549000000     0.396000000
O     8.078000000     2.217000000    -0.244000000
H     8.108000000     2.283000000     0.711000000
H     7.769000000     1.326000000    -0.412000000
O     8.142000000    -5.594000000     2.472000000
H     7.739000000    -4.797000000     2.128000000
H     7.412000000    -6.093000000     2.838000000
O     8.182000000    -4.465000000    -4.237000000
H     8.030000000    -3.775000000    -4.883000000
H     7.756000000    -4.146000000    -3.441000000
O     9.421000000    -0.855000000     2.725000000
H     8.498000000    -0.891000000     2.976000000
H     9.650000000     0.073000000     2.786000000
O     3.345000000     0.687000000     2.753000000
H     4.101000000     1.151000000     2.394000000
H     2.677000000     0.752000000     2.070000000
O     8.772000000    -2.958000000     0.331000000
H     8.053000000    -2.681000000     0.899000000
H     9.556000000    -2.861000000     0.872000000
O     6.038000000    -6.204000000    -1.873000000
H     5.662000000    -6.246000000    -0.993000000
H     6.129000000    -5.268000000    -2.049000000
