215
-1460.08215
C    -0.656000000    -0.715000000     4.320000000
H    -1.216000000    -1.595000000     4.012000000
C    -1.113000000     0.595000000     4.123000000
C    -0.501000000     1.648000000     4.812000000
H    -0.810000000     2.666000000     4.589000000
C    -2.280000000     0.845000000     3.232000000
O    -3.363000000    -0.163000000     3.322000000
H    -1.849000000     0.753000000     2.224000000
O    -2.795000000     2.112000000     3.379000000
C    -2.899000000     2.905000000     2.263000000
C    -1.928000000     3.873000000     1.989000000
H    -1.011000000     3.965000000     2.565000000
C    -1.889000000     4.470000000     0.718000000
O    -0.804000000     5.232000000     0.347000000
C    -2.825000000     4.174000000    -0.291000000
C    -2.758000000     4.708000000    -1.705000000
H    -3.758000000     4.847000000    -2.123000000
C    -1.867000000     3.804000000    -2.522000000
C    -2.501000000     2.727000000    -3.176000000
H    -3.572000000     2.544000000    -3.207000000
H    -2.426000000     5.742000000    -1.816000000
C    -3.898000000     3.322000000     0.077000000
H    -4.681000000     3.133000000    -0.653000000
C    -3.947000000     2.683000000     1.337000000
C    -5.069000000     1.667000000     1.670000000
H    -5.925000000     2.047000000     1.108000000
H    -5.401000000     1.672000000     2.710000000
C    -4.712000000     0.232000000     1.291000000
C    -5.088000000    -0.288000000     0.022000000
H    -5.641000000     0.408000000    -0.603000000
C    -3.928000000    -0.573000000     2.139000000
C    -3.579000000    -1.882000000     1.787000000
H    -2.875000000    -2.444000000     2.396000000
C    -3.956000000    -2.367000000     0.517000000
O    -3.456000000    -3.640000000     0.188000000
C    -2.230000000    -3.773000000    -0.540000000
C    -1.363000000    -4.838000000    -0.004000000
C    -0.451000000    -5.464000000    -0.830000000
H    -0.376000000    -5.225000000    -1.888000000
C    -1.339000000    -5.093000000     1.395000000
H    -2.132000000    -4.732000000     2.046000000
O    -2.681000000    -4.042000000    -1.867000000
H    -1.642000000    -2.853000000    -0.672000000
C    -4.707000000    -1.603000000    -0.331000000
C    -4.936000000    -2.179000000    -1.711000000
H    -5.769000000    -1.578000000    -2.083000000
H    -5.123000000    -3.253000000    -1.660000000
C    -3.798000000    -2.001000000    -2.625000000
C    -3.737000000    -0.839000000    -3.325000000
H    -4.503000000    -0.070000000    -3.258000000
C    -2.801000000    -2.985000000    -2.761000000
C    -1.615000000    -2.660000000    -3.423000000
H    -0.866000000    -3.440000000    -3.312000000
C    -1.553000000    -1.477000000    -4.148000000
O    -0.338000000    -1.294000000    -4.761000000
C     0.527000000    -0.306000000    -4.130000000
C     1.992000000    -0.740000000    -4.132000000
C     2.412000000    -1.984000000    -3.634000000
H     1.671000000    -2.613000000    -3.148000000
C     3.075000000     0.151000000    -4.440000000
H     2.838000000     1.199000000    -4.604000000
O     0.283000000     1.043000000    -4.730000000
H     0.148000000    -0.229000000    -3.100000000
C    -2.637000000    -0.614000000    -4.177000000
C    -2.557000000     0.732000000    -4.847000000
H    -3.555000000     1.082000000    -5.120000000
H    -2.034000000     0.582000000    -5.795000000
C    -1.836000000     1.804000000    -3.979000000
C    -0.452000000     2.035000000    -4.015000000
C     0.211000000     3.087000000    -3.357000000
H     1.287000000     3.156000000    -3.491000000
C    -0.506000000     3.949000000    -2.580000000
O     0.239000000     4.747000000    -1.799000000
C     0.185000000     4.487000000    -0.397000000
H    -0.210000000     3.461000000    -0.439000000
C     1.615000000     4.500000000     0.258000000
C     1.865000000     5.109000000     1.483000000
H     1.190000000     5.826000000     1.944000000
C     2.638000000     3.785000000    -0.391000000
H     2.430000000     3.255000000    -1.316000000
C     3.960000000     3.694000000     0.178000000
O     4.909000000     2.987000000    -0.480000000
C     4.173000000     4.235000000     1.405000000
H     5.135000000     4.035000000     1.871000000
C     3.099000000     4.852000000     2.167000000
O     3.302000000     5.483000000     3.387000000
C     2.475000000     5.269000000     4.385000000
C     2.390000000     3.937000000     4.877000000
H     2.983000000     3.138000000     4.440000000
C     1.583000000     6.279000000     4.835000000
H     1.710000000     7.267000000     4.399000000
C     0.517000000     5.889000000     5.722000000
H    -0.188000000     6.573000000     6.187000000
C     0.492000000     4.560000000     6.173000000
H    -0.107000000     4.262000000     7.030000000
C     1.493000000     3.675000000     5.883000000
O     1.316000000     2.320000000     6.323000000
C     0.635000000     1.365000000     5.627000000
C     1.155000000     0.048000000     5.681000000
H     1.991000000    -0.136000000     6.351000000
C     0.459000000    -1.018000000     5.188000000
O     0.901000000    -2.284000000     5.463000000
C     0.059000000    -3.405000000     5.292000000
C     0.131000000    -4.248000000     4.201000000
H     0.833000000    -3.991000000     3.412000000
C    -0.798000000    -3.730000000     6.375000000
H    -0.784000000    -3.124000000     7.276000000
C    -1.575000000    -4.903000000     6.306000000
H    -2.082000000    -5.238000000     7.208000000
C    -1.515000000    -5.732000000     5.170000000
H    -2.070000000    -6.667000000     5.152000000
C    -0.672000000    -5.401000000     4.145000000
O    -0.448000000    -6.322000000     3.211000000
C    -0.444000000    -6.032000000     1.844000000
C     0.478000000    -6.755000000     1.051000000
H     1.074000000    -7.526000000     1.533000000
C     0.463000000    -6.411000000    -0.283000000
O     1.316000000    -7.082000000    -1.116000000
C     1.870000000    -6.437000000    -2.231000000
C     2.680000000    -5.313000000    -2.189000000
H     2.761000000    -4.836000000    -1.215000000
C     1.705000000    -7.054000000    -3.432000000
H     1.135000000    -7.978000000    -3.478000000
C     2.228000000    -6.626000000    -4.619000000
H     2.084000000    -7.150000000    -5.560000000
C     2.867000000    -5.401000000    -4.543000000
H     3.267000000    -4.925000000    -5.435000000
C     3.066000000    -4.700000000    -3.366000000
O     3.994000000    -3.717000000    -3.280000000
C     3.702000000    -2.367000000    -3.612000000
C     4.723000000    -1.511000000    -4.014000000
H     5.767000000    -1.800000000    -4.107000000
C     4.402000000    -0.216000000    -4.370000000
O     5.448000000     0.650000000    -4.693000000
C     5.464000000     1.814000000    -3.932000000
C     5.903000000     3.000000000    -4.525000000
H     6.293000000     2.914000000    -5.536000000
C     5.862000000     4.234000000    -3.856000000
H     6.151000000     5.146000000    -4.372000000
C     5.585000000     4.241000000    -2.479000000
H     5.712000000     5.169000000    -1.927000000
C     5.167000000     3.041000000    -1.838000000
C     5.105000000     1.854000000    -2.571000000
H     4.882000000     0.913000000    -2.076000000
C     1.641000000    -1.852000000     0.809000000
H     1.977000000    -2.793000000     1.237000000
C     0.319000000    -1.410000000     0.846000000
H    -0.338000000    -1.964000000     1.512000000
C     0.031000000    -0.172000000     0.272000000
H    -0.879000000     0.280000000     0.413000000
C     1.012000000     0.509000000    -0.405000000
H     0.789000000     1.483000000    -0.833000000
C     2.325000000     0.054000000    -0.442000000
H     3.055000000     0.660000000    -0.973000000
C     2.647000000    -1.164000000     0.169000000
C     4.053000000    -1.633000000     0.183000000
O     4.956000000    -0.813000000    -0.006000000
O     4.223000000    -2.823000000     0.460000000
O     6.063000000    -2.346000000     4.705000000
H     6.586000000    -1.768000000     5.260000000
H     5.220000000    -1.900000000     4.621000000
O     3.847000000    -0.868000000     3.941000000
H     4.422000000    -0.501000000     3.270000000
H     3.043000000    -0.352000000     3.877000000
O     8.285000000    -3.114000000    -4.273000000
H     9.055000000    -2.660000000    -3.931000000
H     7.865000000    -3.489000000    -3.500000000
O     7.560000000     1.805000000     0.927000000
H     7.610000000     0.913000000     1.271000000
H     8.282000000     1.860000000     0.301000000
O     8.836000000    -3.710000000     3.084000000
H     8.055000000    -3.688000000     2.531000000
H     8.592000000    -3.211000000     3.864000000
O     7.710000000    -1.075000000     1.102000000
H     6.857000000    -1.096000000     0.668000000
H     8.316000000    -1.438000000     0.457000000
O     4.918000000     0.764000000     1.878000000
H     4.942000000     0.091000000     1.198000000
H     5.518000000     1.441000000     1.565000000
O     6.333000000    -3.585000000     2.144000000
H     6.033000000    -3.134000000     2.933000000
H     5.703000000    -3.333000000     1.469000000
O     6.777000000    -6.178000000     1.269000000
H     6.927000000    -6.180000000     0.324000000
H     6.534000000    -5.274000000     1.471000000
O     7.985000000     0.496000000     3.782000000
H     8.189000000    -0.387000000     3.474000000
H     8.733000000     0.738000000     4.329000000
O     7.144000000    -6.051000000    -1.475000000
H     7.928000000    -6.422000000    -1.880000000
H     6.431000000    -6.300000000    -2.064000000
O     7.230000000    -0.356000000    -2.059000000
H     7.401000000    -1.298000000    -2.039000000
H     6.483000000    -0.237000000    -1.472000000
O     6.722000000    -3.186000000    -1.560000000
H     5.921000000    -3.004000000    -1.068000000
H     6.900000000    -4.111000000    -1.393000000
O     3.207000000    -5.306000000     1.647000000
H     2.667000000    -5.726000000     0.977000000
H     3.472000000    -4.475000000     1.253000000
O     9.181000000     0.954000000    -3.427000000
H     8.364000000     0.710000000    -2.991000000
H     9.232000000     0.369000000    -4.183000000
O     5.446000000     1.549000000     4.908000000
H     6.351000000     1.356000000     4.661000000
H     4.921000000     0.951000000     4.376000000
O     4.604000000    -7.816000000     2.123000000
H     5.400000000    -7.321000000     1.927000000
H     3.901000000    -7.169000000     2.072000000
O     2.175000000     1.075000000     2.685000000
H     2.949000000     0.872000000     2.160000000
H     1.460000000     1.118000000     2.051000000
O     6.226000000    -5.169000000     5.260000000
H     6.948000000    -5.270000000     5.881000000
H     6.181000000    -4.227000000     5.096000000
