215
-1461.41537
C    -0.655000000    -0.743000000     4.689000000
H    -1.123000000    -1.601000000     4.213000000
C    -1.092000000     0.522000000     4.338000000
C    -0.402000000     1.649000000     4.862000000
H    -0.642000000     2.642000000     4.490000000
C    -2.214000000     0.803000000     3.315000000
O    -3.292000000    -0.131000000     3.458000000
H    -1.733000000     0.796000000     2.326000000
O    -2.841000000     2.185000000     3.465000000
C    -2.994000000     2.947000000     2.343000000
C    -1.958000000     3.799000000     1.958000000
H    -1.188000000     3.998000000     2.699000000
C    -1.865000000     4.325000000     0.647000000
O    -0.740000000     5.017000000     0.243000000
C    -2.869000000     4.030000000    -0.291000000
C    -2.743000000     4.624000000    -1.712000000
H    -3.735000000     4.863000000    -2.100000000
C    -1.934000000     3.699000000    -2.666000000
C    -2.628000000     2.618000000    -3.306000000
H    -3.706000000     2.623000000    -3.169000000
H    -2.259000000     5.594000000    -1.579000000
C    -3.870000000     3.177000000     0.136000000
H    -4.570000000     2.979000000    -0.672000000
C    -3.906000000     2.516000000     1.384000000
C    -5.019000000     1.563000000     1.642000000
H    -5.863000000     1.901000000     1.035000000
H    -5.277000000     1.666000000     2.698000000
C    -4.625000000     0.068000000     1.352000000
C    -5.049000000    -0.607000000     0.221000000
H    -5.718000000    -0.092000000    -0.463000000
C    -3.846000000    -0.657000000     2.275000000
C    -3.419000000    -1.940000000     2.010000000
H    -2.754000000    -2.512000000     2.653000000
C    -3.879000000    -2.572000000     0.816000000
O    -3.340000000    -3.741000000     0.430000000
C    -2.107000000    -3.653000000    -0.326000000
C    -1.097000000    -4.617000000     0.314000000
C    -0.035000000    -4.948000000    -0.473000000
H     0.073000000    -4.569000000    -1.486000000
C    -1.165000000    -5.167000000     1.564000000
H    -1.958000000    -4.935000000     2.270000000
O    -2.438000000    -4.036000000    -1.666000000
H    -1.708000000    -2.628000000    -0.316000000
C    -4.613000000    -1.845000000    -0.097000000
C    -4.847000000    -2.399000000    -1.491000000
H    -5.776000000    -1.978000000    -1.882000000
H    -5.088000000    -3.456000000    -1.358000000
C    -3.755000000    -2.087000000    -2.476000000
C    -3.809000000    -1.015000000    -3.397000000
H    -4.630000000    -0.314000000    -3.272000000
C    -2.634000000    -2.971000000    -2.543000000
C    -1.581000000    -2.703000000    -3.436000000
H    -0.703000000    -3.339000000    -3.514000000
C    -1.625000000    -1.547000000    -4.234000000
O    -0.567000000    -1.253000000    -5.057000000
C     0.446000000    -0.333000000    -4.504000000
C     1.860000000    -0.743000000    -4.774000000
C     2.099000000    -2.122000000    -4.985000000
H     1.268000000    -2.823000000    -4.977000000
C     2.926000000     0.045000000    -4.401000000
H     2.685000000     1.011000000    -3.966000000
O     0.182000000     1.005000000    -5.009000000
H     0.325000000    -0.220000000    -3.417000000
C    -2.718000000    -0.649000000    -4.157000000
C    -2.744000000     0.715000000    -4.895000000
H    -3.744000000     1.081000000    -5.139000000
H    -2.465000000     0.542000000    -5.936000000
C    -1.995000000     1.742000000    -4.111000000
C    -0.586000000     1.842000000    -4.271000000
C     0.094000000     2.853000000    -3.574000000
H     1.178000000     2.808000000    -3.637000000
C    -0.528000000     3.723000000    -2.672000000
O     0.246000000     4.508000000    -1.784000000
C     0.273000000     4.241000000    -0.388000000
H     0.071000000     3.182000000    -0.170000000
C     1.676000000     4.393000000     0.224000000
C     1.843000000     4.675000000     1.545000000
H     0.937000000     4.888000000     2.107000000
C     2.724000000     4.051000000    -0.613000000
H     2.523000000     3.794000000    -1.650000000
C     4.031000000     4.116000000    -0.078000000
O     5.226000000     3.826000000    -0.776000000
C     4.162000000     4.455000000     1.288000000
H     5.143000000     4.608000000     1.731000000
C     3.083000000     4.761000000     2.116000000
O     3.304000000     5.203000000     3.397000000
C     2.309000000     5.121000000     4.346000000
C     1.990000000     3.873000000     4.919000000
H     2.530000000     3.030000000     4.495000000
C     1.835000000     6.300000000     4.984000000
H     2.148000000     7.292000000     4.667000000
C     0.989000000     6.223000000     6.011000000
H     0.609000000     7.104000000     6.522000000
C     0.590000000     4.994000000     6.492000000
H    -0.061000000     4.974000000     7.362000000
C     1.134000000     3.772000000     6.009000000
O     0.898000000     2.589000000     6.596000000
C     0.543000000     1.463000000     5.876000000
C     0.860000000     0.176000000     6.284000000
H     1.588000000     0.025000000     7.077000000
C     0.268000000    -0.894000000     5.693000000
O     0.756000000    -2.125000000     5.913000000
C     0.114000000    -3.307000000     5.635000000
C     0.467000000    -4.120000000     4.558000000
H     1.292000000    -3.927000000     3.876000000
C    -0.702000000    -3.831000000     6.670000000
H    -1.025000000    -3.135000000     7.440000000
C    -1.212000000    -5.099000000     6.567000000
H    -1.823000000    -5.504000000     7.369000000
C    -0.885000000    -5.897000000     5.526000000
H    -1.223000000    -6.929000000     5.490000000
C    -0.095000000    -5.416000000     4.524000000
O     0.080000000    -6.200000000     3.443000000
C    -0.027000000    -5.855000000     2.092000000
C     1.135000000    -6.072000000     1.297000000
H     2.035000000    -6.430000000     1.791000000
C     1.085000000    -5.646000000     0.002000000
O     2.203000000    -5.783000000    -0.810000000
C     2.253000000    -5.784000000    -2.191000000
C     2.966000000    -4.848000000    -2.970000000
H     3.494000000    -4.067000000    -2.429000000
C     1.700000000    -6.880000000    -2.891000000
H     1.219000000    -7.646000000    -2.288000000
C     1.737000000    -6.921000000    -4.292000000
H     1.290000000    -7.770000000    -4.804000000
C     2.302000000    -5.855000000    -4.991000000
H     2.258000000    -5.918000000    -6.075000000
C     2.942000000    -4.839000000    -4.352000000
O     3.652000000    -3.932000000    -5.160000000
C     3.419000000    -2.580000000    -5.019000000
C     4.462000000    -1.757000000    -4.832000000
H     5.455000000    -2.189000000    -4.923000000
C     4.258000000    -0.422000000    -4.514000000
O     5.329000000     0.398000000    -4.130000000
C     5.164000000     1.775000000    -3.772000000
C     4.957000000     2.660000000    -4.758000000
H     4.860000000     2.335000000    -5.791000000
C     5.061000000     4.017000000    -4.486000000
H     4.996000000     4.840000000    -5.193000000
C     5.230000000     4.458000000    -3.164000000
H     5.025000000     5.450000000    -2.770000000
C     5.237000000     3.486000000    -2.152000000
C     5.301000000     2.138000000    -2.496000000
H     5.300000000     1.405000000    -1.693000000
C     1.269000000    -2.052000000     1.040000000
H     1.081000000    -2.595000000     1.963000000
C     0.324000000    -1.082000000     0.651000000
H    -0.612000000    -0.993000000     1.196000000
C     0.547000000    -0.222000000    -0.397000000
H    -0.229000000     0.447000000    -0.700000000
C     1.754000000    -0.250000000    -1.032000000
H     2.000000000     0.484000000    -1.794000000
C     2.752000000    -1.171000000    -0.668000000
H     3.708000000    -1.260000000    -1.176000000
C     2.536000000    -2.009000000     0.442000000
C     3.669000000    -2.925000000     0.993000000
O     4.856000000    -2.734000000     0.731000000
O     3.378000000    -3.652000000     1.956000000
O     6.773000000    -6.508000000     3.613000000
H     6.346000000    -5.898000000     3.012000000
H     7.199000000    -5.947000000     4.261000000
O     4.471000000    -3.585000000     4.415000000
H     4.116000000    -3.644000000     3.528000000
H     4.528000000    -4.494000000     4.710000000
O     7.880000000     1.973000000     0.002000000
H     7.433000000     1.149000000     0.196000000
H     8.280000000     1.832000000    -0.856000000
O     8.804000000    -0.874000000    -0.319000000
H     8.027000000    -0.666000000     0.201000000
H     8.489000000    -0.894000000    -1.222000000
O     6.053000000    -0.102000000     0.311000000
H     5.587000000    -0.937000000     0.264000000
H     5.724000000     0.310000000     1.110000000
O     6.639000000    -2.600000000     2.765000000
H     5.876000000    -2.801000000     3.306000000
H     6.340000000    -2.741000000     1.867000000
O     5.973000000    -1.317000000     5.554000000
H     5.256000000    -1.945000000     5.461000000
H     6.767000000    -1.845000000     5.473000000
O     9.725000000    -4.074000000     3.239000000
H     9.250000000    -3.546000000     2.597000000
H     9.891000000    -4.904000000     2.791000000
O     5.631000000    -6.846000000    -0.798000000
H     6.433000000    -7.353000000    -0.673000000
H     5.876000000    -6.159000000    -1.417000000
O     8.649000000    -0.712000000     3.608000000
H     8.009000000    -1.375000000     3.352000000
H     9.326000000    -0.759000000     2.933000000
O     2.999000000    -8.428000000     0.056000000
H     3.688000000    -8.691000000     0.665000000
H     3.352000000    -7.655000000    -0.386000000
O     3.304000000    -2.997000000     6.760000000
H     2.562000000    -2.447000000     6.509000000
H     3.676000000    -3.291000000     5.929000000
O     5.882000000    -3.009000000    -2.135000000
H     6.426000000    -3.785000000    -2.270000000
H     5.428000000    -3.176000000    -1.309000000
O     4.709000000    -6.071000000     1.688000000
H     4.918000000    -6.350000000     0.797000000
H     4.502000000    -5.140000000     1.604000000
O     3.241000000    -7.254000000     4.274000000
H     3.454000000    -7.087000000     3.356000000
H     3.590000000    -6.496000000     4.743000000
O     7.814000000    -1.195000000    -2.644000000
H     7.043000000    -1.699000000    -2.384000000
H     7.856000000    -1.295000000    -3.595000000
O     5.590000000     0.671000000     3.157000000
H     6.100000000     0.124000000     3.754000000
H     4.679000000     0.509000000     3.402000000
O     2.673000000     0.201000000     3.056000000
H     2.675000000    -0.014000000     2.123000000
H     2.311000000    -0.577000000     3.480000000
O     7.709000000    -4.923000000    -1.760000000
H     8.102000000    -4.365000000    -1.089000000
H     8.451000000    -5.376000000    -2.159000000
