215
-1445.70650
C    -1.274000000    -0.244000000     4.388000000
H    -1.542000000    -1.101000000     3.776000000
C    -1.825000000     1.016000000     4.070000000
C    -1.351000000     2.116000000     4.721000000
H    -1.863000000     3.075000000     4.728000000
C    -2.726000000     1.105000000     2.894000000
O    -3.733000000     0.089000000     2.933000000
H    -2.086000000     0.955000000     2.012000000
O    -3.349000000     2.429000000     2.759000000
C    -3.249000000     2.968000000     1.525000000
C    -2.222000000     3.845000000     1.268000000
H    -1.478000000     4.152000000     1.999000000
C    -1.972000000     4.177000000    -0.066000000
O    -0.922000000     4.970000000    -0.337000000
C    -2.845000000     3.837000000    -1.099000000
C    -2.636000000     4.449000000    -2.505000000
H    -3.571000000     4.429000000    -3.069000000
C    -1.631000000     3.557000000    -3.240000000
C    -2.195000000     2.448000000    -3.876000000
H    -3.278000000     2.427000000    -3.965000000
H    -2.354000000     5.502000000    -2.435000000
C    -3.885000000     2.895000000    -0.848000000
H    -4.534000000     2.544000000    -1.645000000
C    -4.112000000     2.533000000     0.493000000
C    -5.180000000     1.437000000     0.761000000
H    -5.990000000     1.508000000     0.032000000
H    -5.693000000     1.577000000     1.715000000
C    -4.638000000    -0.024000000     0.670000000
C    -4.789000000    -0.720000000    -0.545000000
H    -5.179000000    -0.118000000    -1.362000000
C    -3.934000000    -0.606000000     1.739000000
C    -3.547000000    -1.961000000     1.659000000
H    -3.155000000    -2.488000000     2.526000000
C    -3.720000000    -2.615000000     0.467000000
O    -3.193000000    -3.923000000     0.338000000
C    -1.931000000    -4.030000000    -0.329000000
C    -0.956000000    -5.083000000     0.313000000
C     0.097000000    -5.590000000    -0.368000000
H     0.300000000    -5.412000000    -1.421000000
C    -1.096000000    -5.365000000     1.655000000
H    -1.952000000    -4.864000000     2.099000000
O    -2.146000000    -4.356000000    -1.714000000
H    -1.460000000    -3.048000000    -0.174000000
C    -4.412000000    -2.028000000    -0.624000000
C    -4.565000000    -2.812000000    -1.957000000
H    -5.490000000    -2.495000000    -2.443000000
H    -4.665000000    -3.890000000    -1.813000000
C    -3.375000000    -2.496000000    -2.888000000
C    -3.391000000    -1.427000000    -3.751000000
H    -4.241000000    -0.750000000    -3.752000000
C    -2.224000000    -3.329000000    -2.731000000
C    -0.993000000    -2.992000000    -3.306000000
H    -0.109000000    -3.584000000    -3.084000000
C    -1.014000000    -1.901000000    -4.196000000
O     0.225000000    -1.587000000    -4.746000000
C     1.075000000    -0.567000000    -4.173000000
C     2.568000000    -0.952000000    -4.034000000
C     2.919000000    -2.298000000    -3.906000000
H     2.109000000    -3.022000000    -3.882000000
C     3.585000000     0.033000000    -4.009000000
H     3.237000000     1.038000000    -4.233000000
O     0.913000000     0.644000000    -4.863000000
H     0.659000000    -0.370000000    -3.174000000
C    -2.153000000    -1.056000000    -4.325000000
C    -2.046000000     0.286000000    -5.184000000
H    -2.985000000     0.586000000    -5.654000000
H    -1.445000000     0.098000000    -6.076000000
C    -1.432000000     1.456000000    -4.509000000
C    -0.015000000     1.577000000    -4.390000000
C     0.532000000     2.666000000    -3.722000000
H     1.611000000     2.611000000    -3.598000000
C    -0.234000000     3.620000000    -3.065000000
O     0.450000000     4.421000000    -2.241000000
C     0.183000000     4.213000000    -0.777000000
H     0.031000000     3.136000000    -0.615000000
C     1.492000000     4.550000000    -0.020000000
C     1.445000000     5.222000000     1.261000000
H     0.522000000     5.671000000     1.617000000
C     2.638000000     3.801000000    -0.320000000
H     2.763000000     3.356000000    -1.304000000
C     3.737000000     3.725000000     0.560000000
O     4.955000000     3.168000000     0.321000000
C     3.602000000     4.299000000     1.843000000
H     4.386000000     4.215000000     2.592000000
C     2.497000000     5.083000000     2.164000000
O     2.447000000     5.774000000     3.373000000
C     1.413000000     5.734000000     4.328000000
C     1.059000000     4.449000000     4.838000000
H     1.495000000     3.530000000     4.456000000
C     0.872000000     6.909000000     4.934000000
H     1.128000000     7.890000000     4.541000000
C    -0.063000000     6.763000000     5.933000000
H    -0.521000000     7.636000000     6.391000000
C    -0.460000000     5.483000000     6.358000000
H    -1.143000000     5.394000000     7.199000000
C     0.123000000     4.346000000     5.850000000
O    -0.245000000     3.166000000     6.481000000
C    -0.428000000     2.017000000     5.740000000
C    -0.071000000     0.738000000     6.259000000
H     0.619000000     0.684000000     7.097000000
C    -0.442000000    -0.365000000     5.484000000
O    -0.001000000    -1.613000000     5.855000000
C    -0.630000000    -2.814000000     5.590000000
C     0.094000000    -3.814000000     4.892000000
H     1.079000000    -3.562000000     4.509000000
C    -1.900000000    -3.081000000     6.051000000
H    -2.420000000    -2.269000000     6.552000000
C    -2.626000000    -4.192000000     5.585000000
H    -3.675000000    -4.438000000     5.732000000
C    -1.881000000    -5.157000000     4.915000000
H    -2.353000000    -6.081000000     4.589000000
C    -0.568000000    -4.980000000     4.568000000
O     0.043000000    -5.929000000     3.783000000
C    -0.119000000    -6.029000000     2.418000000
C     0.993000000    -6.481000000     1.725000000
H     1.783000000    -7.018000000     2.245000000
C     1.048000000    -6.330000000     0.322000000
O     2.206000000    -6.707000000    -0.345000000
C     2.580000000    -6.352000000    -1.627000000
C     3.381000000    -5.246000000    -1.877000000
H     3.682000000    -4.531000000    -1.116000000
C     2.144000000    -7.170000000    -2.642000000
H     1.466000000    -7.981000000    -2.389000000
C     2.559000000    -6.895000000    -3.954000000
H     2.128000000    -7.493000000    -4.753000000
C     3.395000000    -5.853000000    -4.205000000
H     3.780000000    -5.692000000    -5.208000000
C     3.829000000    -5.039000000    -3.189000000
O     4.644000000    -3.963000000    -3.450000000
C     4.274000000    -2.675000000    -3.704000000
C     5.242000000    -1.692000000    -3.784000000
H     6.270000000    -2.025000000    -3.669000000
C     4.909000000    -0.314000000    -3.811000000
O     5.949000000     0.578000000    -3.685000000
C     5.814000000     1.768000000    -3.037000000
C     6.223000000     2.967000000    -3.670000000
H     6.660000000     2.884000000    -4.662000000
C     6.057000000     4.244000000    -3.041000000
H     6.452000000     5.162000000    -3.469000000
C     5.642000000     4.281000000    -1.734000000
H     5.539000000     5.200000000    -1.164000000
C     5.381000000     3.057000000    -1.008000000
C     5.384000000     1.854000000    -1.730000000
H     5.190000000     0.920000000    -1.207000000
C     0.683000000    -1.946000000     1.246000000
H     0.333000000    -2.714000000     1.930000000
C    -0.209000000    -0.944000000     0.842000000
H    -1.267000000    -0.883000000     1.086000000
C     0.243000000     0.020000000    -0.039000000
H    -0.394000000     0.731000000    -0.399000000
C     1.497000000    -0.051000000    -0.640000000
H     1.751000000     0.680000000    -1.403000000
C     2.383000000    -1.082000000    -0.295000000
H     3.386000000    -1.037000000    -0.711000000
C     1.987000000    -1.993000000     0.821000000
C     2.902000000    -2.989000000     1.384000000
O     3.997000000    -3.088000000     0.904000000
O     2.643000000    -3.504000000     2.460000000
O     8.690000000    -3.629000000     0.749000000
H     8.605000000    -2.997000000     1.463000000
H     9.576000000    -3.494000000     0.415000000
O     7.132000000    -2.385000000     6.581000000
H     6.969000000    -1.935000000     5.751000000
H     7.094000000    -3.316000000     6.360000000
O     3.093000000    -0.836000000     6.672000000
H     3.518000000    -1.329000000     5.970000000
H     2.283000000    -1.316000000     6.845000000
O     5.239000000    -8.921000000    -1.830000000
H     5.005000000    -8.627000000    -0.950000000
H     5.356000000    -9.867000000    -1.744000000
O     6.738000000     1.707000000     2.415000000
H     7.148000000     1.127000000     1.773000000
H     6.710000000     1.191000000     3.221000000
O     6.516000000    -3.990000000     4.055000000
H     5.828000000    -4.619000000     3.835000000
H     7.073000000    -4.454000000     4.680000000
O     8.825000000    -2.094000000     3.752000000
H     9.562000000    -2.692000000     3.879000000
H     8.055000000    -2.608000000     3.997000000
O     4.695000000    -5.914000000     1.162000000
H     4.377000000    -5.011000000     1.166000000
H     5.208000000    -5.983000000     0.357000000
O     4.143000000    -8.522000000     0.778000000
H     3.959000000    -7.602000000     0.969000000
H     3.546000000    -9.009000000     1.346000000
O     6.321000000    -1.707000000    -0.157000000
H     7.122000000    -2.150000000     0.122000000
H     5.615000000    -2.280000000     0.141000000
O     3.841000000    -5.294000000     3.754000000
H     3.230000000    -4.663000000     3.374000000
H     4.253000000    -5.713000000     2.998000000
O     2.378000000    -6.251000000     6.149000000
H     2.763000000    -5.915000000     5.340000000
H     3.006000000    -6.903000000     6.461000000
O     7.252000000     0.093000000     4.652000000
H     7.570000000     0.476000000     5.470000000
H     7.969000000    -0.466000000     4.354000000
O     4.017000000    -2.477000000     4.713000000
H     3.360000000    -2.407000000     4.020000000
H     4.796000000    -2.814000000     4.271000000
O     8.200000000    -6.365000000     1.192000000
H     7.529000000    -6.419000000     0.511000000
H     8.265000000    -5.431000000     1.390000000
O     7.694000000     0.500000000     0.447000000
H     7.300000000    -0.235000000    -0.024000000
H     7.411000000     1.274000000    -0.039000000
O     3.440000000    -3.914000000     7.152000000
H     3.823000000    -4.789000000     7.200000000
H     3.871000000    -3.504000000     6.403000000
O     4.826000000     2.008000000     4.708000000
H     5.652000000     1.525000000     4.761000000
H     4.446000000     1.740000000     3.871000000
O     6.431000000    -5.512000000    -1.057000000
H     6.880000000    -5.826000000    -1.842000000
H     6.168000000    -4.617000000    -1.273000000
