215
-1432.00089
C    -1.067000000    -1.131000000     4.922000000
H    -1.681000000    -1.883000000     4.433000000
C    -1.221000000     0.206000000     4.544000000
C    -0.378000000     1.194000000     5.062000000
H    -0.392000000     2.199000000     4.648000000
C    -2.178000000     0.441000000     3.415000000
O    -3.355000000    -0.417000000     3.504000000
H    -1.668000000     0.301000000     2.451000000
O    -2.724000000     1.816000000     3.491000000
C    -2.959000000     2.689000000     2.400000000
C    -1.893000000     3.561000000     2.127000000
H    -1.118000000     3.688000000     2.878000000
C    -1.769000000     4.061000000     0.794000000
O    -0.684000000     4.912000000     0.529000000
C    -2.740000000     3.839000000    -0.155000000
C    -2.621000000     4.526000000    -1.516000000
H    -3.582000000     4.812000000    -1.949000000
C    -1.840000000     3.691000000    -2.579000000
C    -2.490000000     2.790000000    -3.366000000
H    -3.576000000     2.797000000    -3.316000000
H    -2.199000000     5.532000000    -1.454000000
C    -3.737000000     2.920000000     0.140000000
H    -4.424000000     2.554000000    -0.620000000
C    -3.872000000     2.391000000     1.389000000
C    -5.019000000     1.408000000     1.754000000
H    -5.967000000     1.615000000     1.254000000
H    -5.228000000     1.552000000     2.816000000
C    -4.562000000    -0.026000000     1.418000000
C    -4.871000000    -0.481000000     0.117000000
H    -5.313000000     0.260000000    -0.544000000
C    -3.970000000    -0.887000000     2.372000000
C    -3.633000000    -2.189000000     2.045000000
H    -3.210000000    -2.844000000     2.803000000
C    -3.867000000    -2.586000000     0.704000000
O    -3.344000000    -3.798000000     0.294000000
C    -2.148000000    -3.678000000    -0.501000000
C    -1.102000000    -4.552000000     0.137000000
C     0.055000000    -4.835000000    -0.560000000
H     0.207000000    -4.466000000    -1.571000000
C    -1.346000000    -5.202000000     1.320000000
H    -2.335000000    -5.174000000     1.771000000
O    -2.330000000    -3.986000000    -1.920000000
H    -1.759000000    -2.650000000    -0.519000000
C    -4.509000000    -1.785000000    -0.275000000
C    -4.684000000    -2.204000000    -1.695000000
H    -5.616000000    -1.831000000    -2.125000000
H    -4.952000000    -3.262000000    -1.704000000
C    -3.462000000    -1.989000000    -2.548000000
C    -3.466000000    -0.828000000    -3.296000000
H    -4.312000000    -0.148000000    -3.363000000
C    -2.494000000    -2.949000000    -2.734000000
C    -1.424000000    -2.730000000    -3.661000000
H    -0.594000000    -3.423000000    -3.771000000
C    -1.393000000    -1.434000000    -4.281000000
O    -0.261000000    -1.045000000    -4.975000000
C     0.676000000    -0.093000000    -4.406000000
C     2.146000000    -0.466000000    -4.617000000
C     2.529000000    -1.787000000    -4.465000000
H     1.821000000    -2.572000000    -4.215000000
C     3.181000000     0.479000000    -4.716000000
H     2.940000000     1.507000000    -4.457000000
O     0.421000000     1.197000000    -4.897000000
H     0.498000000    -0.034000000    -3.322000000
C    -2.382000000    -0.521000000    -4.081000000
C    -2.422000000     0.809000000    -4.828000000
H    -3.401000000     1.109000000    -5.207000000
H    -1.937000000     0.702000000    -5.801000000
C    -1.733000000     1.927000000    -4.140000000
C    -0.364000000     2.056000000    -4.137000000
C     0.301000000     2.934000000    -3.310000000
H     1.380000000     3.046000000    -3.376000000
C    -0.446000000     3.779000000    -2.549000000
O     0.202000000     4.629000000    -1.677000000
C     0.302000000     4.220000000    -0.278000000
H     0.247000000     3.128000000    -0.394000000
C     1.677000000     4.502000000     0.220000000
C     1.836000000     4.829000000     1.591000000
H     0.984000000     5.009000000     2.243000000
C     2.815000000     4.130000000    -0.485000000
H     2.726000000     3.924000000    -1.548000000
C     4.122000000     4.229000000     0.066000000
O     5.209000000     3.928000000    -0.716000000
C     4.222000000     4.491000000     1.449000000
H     5.219000000     4.454000000     1.881000000
C     3.077000000     4.843000000     2.158000000
O     3.257000000     5.209000000     3.465000000
C     2.362000000     4.846000000     4.506000000
C     2.264000000     3.531000000     4.913000000
H     2.805000000     2.725000000     4.423000000
C     1.592000000     5.819000000     5.115000000
H     1.769000000     6.887000000     5.006000000
C     0.682000000     5.396000000     6.110000000
H     0.161000000     6.084000000     6.771000000
C     0.687000000     4.063000000     6.559000000
H     0.054000000     3.793000000     7.399000000
C     1.417000000     3.111000000     5.926000000
O     1.427000000     1.823000000     6.339000000
C     0.582000000     0.837000000     5.958000000
C     0.790000000    -0.500000000     6.347000000
H     1.524000000    -0.829000000     7.077000000
C    -0.099000000    -1.463000000     5.831000000
O    -0.023000000    -2.740000000     6.276000000
C    -0.767000000    -3.825000000     5.778000000
C    -0.228000000    -4.681000000     4.797000000
H     0.719000000    -4.412000000     4.336000000
C    -2.072000000    -4.130000000     6.298000000
H    -2.503000000    -3.560000000     7.117000000
C    -2.817000000    -5.153000000     5.712000000
H    -3.885000000    -5.242000000     5.897000000
C    -2.336000000    -5.896000000     4.677000000
H    -3.103000000    -6.525000000     4.232000000
C    -1.050000000    -5.713000000     4.210000000
O    -0.584000000    -6.501000000     3.203000000
C    -0.343000000    -5.954000000     1.932000000
C     0.767000000    -6.276000000     1.208000000
H     1.582000000    -6.793000000     1.707000000
C     1.023000000    -5.674000000    -0.071000000
O     2.157000000    -5.796000000    -0.774000000
C     2.452000000    -5.657000000    -2.176000000
C     3.358000000    -4.622000000    -2.561000000
H     3.831000000    -3.927000000    -1.873000000
C     1.727000000    -6.379000000    -3.148000000
H     0.919000000    -7.036000000    -2.836000000
C     2.006000000    -6.183000000    -4.485000000
H     1.419000000    -6.728000000    -5.220000000
C     2.810000000    -5.133000000    -4.871000000
H     3.059000000    -4.791000000    -5.873000000
C     3.470000000    -4.407000000    -3.936000000
O     4.347000000    -3.478000000    -4.229000000
C     3.890000000    -2.177000000    -4.551000000
C     4.889000000    -1.228000000    -4.615000000
H     5.941000000    -1.503000000    -4.599000000
C     4.501000000     0.106000000    -4.661000000
O     5.559000000     1.033000000    -4.561000000
C     5.459000000     2.295000000    -4.041000000
C     5.397000000     3.387000000    -4.938000000
H     5.456000000     3.242000000    -6.013000000
C     5.269000000     4.712000000    -4.363000000
H     5.319000000     5.651000000    -4.910000000
C     5.269000000     4.893000000    -2.987000000
H     5.175000000     5.901000000    -2.593000000
C     5.239000000     3.778000000    -2.110000000
C     5.267000000     2.492000000    -2.669000000
H     5.424000000     1.637000000    -2.017000000
C     1.529000000    -2.579000000     1.027000000
H     1.305000000    -3.421000000     1.678000000
C     0.519000000    -1.705000000     0.612000000
H    -0.505000000    -1.812000000     0.960000000
C     0.840000000    -0.661000000    -0.296000000
H     0.064000000     0.098000000    -0.592000000
C     2.141000000    -0.475000000    -0.700000000
H     2.368000000     0.354000000    -1.366000000
C     3.126000000    -1.340000000    -0.310000000
H     4.149000000    -1.064000000    -0.552000000
C     2.879000000    -2.417000000     0.551000000
C     4.028000000    -3.398000000     0.901000000
O     5.105000000    -3.279000000     0.293000000
O     3.917000000    -4.377000000     1.640000000
O     8.744000000    -5.950000000    -1.212000000
H     8.948000000    -6.170000000    -2.121000000
H     7.880000000    -6.334000000    -1.061000000
O     7.841000000    -5.100000000     3.316000000
H     7.199000000    -5.528000000     2.750000000
H     7.991000000    -5.727000000     4.024000000
O     3.668000000    -1.846000000     4.354000000
H     3.836000000    -2.283000000     3.520000000
H     3.114000000    -2.458000000     4.839000000
O     9.714000000    -1.811000000     0.704000000
H     8.786000000    -1.784000000     0.936000000
H     9.727000000    -1.692000000    -0.246000000
O     6.532000000     0.232000000    -0.090000000
H     6.576000000    -0.632000000    -0.498000000
H     6.365000000     0.052000000     0.835000000
O     7.047000000    -2.662000000     1.685000000
H     7.177000000    -3.326000000     2.362000000
H     6.276000000    -2.960000000     1.202000000
O     5.907000000    -0.772000000     5.619000000
H     5.178000000    -0.999000000     5.043000000
H     6.547000000    -1.470000000     5.481000000
O     5.568000000    -6.075000000    -1.288000000
H     5.647000000    -5.171000000    -0.984000000
H     5.909000000    -6.058000000    -2.182000000
O     6.920000000    -8.803000000     1.526000000
H     6.151000000    -9.373000000     1.495000000
H     6.595000000    -7.983000000     1.898000000
O     4.310000000    -8.397000000    -1.737000000
H     3.528000000    -8.130000000    -1.254000000
H     4.899000000    -7.645000000    -1.674000000
O     2.780000000    -3.879000000     6.124000000
H     2.807000000    -4.341000000     5.286000000
H     3.699000000    -3.719000000     6.339000000
O     6.579000000    -2.413000000    -1.787000000
H     6.606000000    -3.190000000    -2.346000000
H     6.077000000    -2.688000000    -1.020000000
O     5.803000000    -6.321000000     1.668000000
H     5.232000000    -5.558000000     1.582000000
H     6.033000000    -6.551000000     0.767000000
O     3.447000000    -5.281000000     3.984000000
H     3.613000000    -4.996000000     3.086000000
H     4.313000000    -5.499000000     4.330000000
O     5.487000000    -4.964000000     5.928000000
H     5.929000000    -4.165000000     5.638000000
H     6.122000000    -5.394000000     6.501000000
O     7.144000000    -0.073000000     2.730000000
H     6.233000000     0.219000000     2.726000000
H     7.094000000    -1.014000000     2.561000000
O     1.981000000    -7.804000000     4.553000000
H     2.319000000    -6.932000000     4.349000000
H     2.546000000    -8.121000000     5.257000000
O     4.456000000     0.338000000     2.711000000
H     3.956000000     0.973000000     2.198000000
H     3.793000000    -0.148000000     3.201000000
O     6.849000000    -4.666000000    -3.536000000
H     7.633000000    -4.209000000    -3.842000000
H     6.141000000    -4.316000000    -4.077000000
