215
-1475.02176
C     1.314000000     3.197000000    -4.534000000
H     1.402000000     2.415000000    -5.285000000
C     1.977000000     3.088000000    -3.265000000
C     1.980000000     4.154000000    -2.375000000
H     2.489000000     4.138000000    -1.414000000
C     2.596000000     1.779000000    -2.926000000
O     2.984000000     0.865000000    -3.988000000
H     1.794000000     1.205000000    -2.439000000
O     3.878000000     1.972000000    -2.190000000
C     4.060000000     1.243000000    -1.052000000
C     3.802000000     1.896000000     0.150000000
H     3.412000000     2.910000000     0.134000000
C     4.105000000     1.239000000     1.311000000
O     3.761000000     1.827000000     2.447000000
C     4.563000000    -0.064000000     1.267000000
C     4.827000000    -0.814000000     2.539000000
H     5.630000000    -1.519000000     2.312000000
C     3.532000000    -1.483000000     2.986000000
C     3.378000000    -2.838000000     2.637000000
H     4.209000000    -3.405000000     2.226000000
H     5.263000000    -0.054000000     3.191000000
C     4.932000000    -0.702000000     0.069000000
H     5.386000000    -1.687000000     0.142000000
C     4.733000000     0.012000000    -1.144000000
C     5.030000000    -0.650000000    -2.458000000
H     5.746000000    -1.458000000    -2.294000000
H     5.431000000     0.116000000    -3.126000000
C     3.771000000    -1.255000000    -3.026000000
C     3.438000000    -2.615000000    -2.761000000
H     4.182000000    -3.178000000    -2.203000000
C     2.795000000    -0.469000000    -3.659000000
C     1.542000000    -0.986000000    -3.947000000
H     0.820000000    -0.320000000    -4.412000000
C     1.249000000    -2.337000000    -3.670000000
O    -0.067000000    -2.625000000    -3.995000000
C    -0.960000000    -2.742000000    -2.894000000
C    -2.299000000    -2.090000000    -3.181000000
C    -3.421000000    -2.463000000    -2.426000000
H    -3.280000000    -3.246000000    -1.685000000
C    -2.324000000    -0.916000000    -3.967000000
H    -1.417000000    -0.448000000    -4.342000000
O    -1.072000000    -4.157000000    -2.502000000
H    -0.564000000    -2.186000000    -2.032000000
C     2.181000000    -3.130000000    -3.010000000
C     1.876000000    -4.646000000    -2.696000000
H     2.828000000    -5.177000000    -2.628000000
H     1.485000000    -5.156000000    -3.578000000
C     1.029000000    -4.697000000    -1.358000000
C     1.702000000    -4.732000000    -0.180000000
H     2.788000000    -4.771000000    -0.167000000
C    -0.368000000    -4.497000000    -1.316000000
C    -1.062000000    -4.622000000    -0.134000000
H    -2.139000000    -4.471000000    -0.155000000
C    -0.307000000    -4.780000000     1.073000000
O    -0.998000000    -4.687000000     2.271000000
C    -1.048000000    -3.331000000     2.795000000
C    -2.427000000    -2.933000000     3.259000000
C    -3.525000000    -3.640000000     2.763000000
H    -3.516000000    -4.571000000     2.200000000
C    -2.642000000    -1.761000000     4.049000000
H    -1.801000000    -1.282000000     4.545000000
O    -0.116000000    -3.254000000     3.836000000
H    -0.769000000    -2.570000000     2.051000000
C     1.079000000    -4.764000000     1.062000000
C     1.851000000    -4.799000000     2.342000000
H     2.826000000    -5.288000000     2.283000000
H     1.388000000    -5.487000000     3.052000000
C     2.119000000    -3.440000000     2.917000000
C     1.103000000    -2.716000000     3.573000000
C     1.368000000    -1.411000000     3.985000000
H     0.671000000    -0.729000000     4.463000000
C     2.475000000    -0.720000000     3.522000000
O     2.557000000     0.541000000     3.833000000
C     2.403000000     1.458000000     2.844000000
H     1.949000000     1.055000000     1.926000000
C     1.635000000     2.678000000     3.308000000
C     1.831000000     3.938000000     2.661000000
H     2.555000000     4.113000000     1.870000000
C     0.657000000     2.562000000     4.243000000
H     0.352000000     1.649000000     4.748000000
C    -0.044000000     3.654000000     4.716000000
O    -1.029000000     3.591000000     5.716000000
C     0.179000000     4.875000000     4.185000000
H    -0.448000000     5.655000000     4.609000000
C     1.103000000     5.038000000     3.150000000
O     1.449000000     6.328000000     2.751000000
C     1.989000000     6.684000000     1.492000000
C     1.568000000     6.184000000     0.234000000
H     0.741000000     5.483000000     0.169000000
C     2.993000000     7.599000000     1.487000000
H     3.292000000     8.118000000     2.394000000
C     3.646000000     8.091000000     0.359000000
H     4.438000000     8.828000000     0.458000000
C     3.063000000     7.717000000    -0.864000000
H     3.458000000     8.149000000    -1.779000000
C     2.038000000     6.815000000    -0.953000000
O     1.432000000     6.581000000    -2.134000000
C     1.375000000     5.376000000    -2.840000000
C     0.683000000     5.445000000    -4.022000000
H     0.230000000     6.386000000    -4.322000000
C     0.557000000     4.348000000    -4.806000000
O    -0.222000000     4.357000000    -5.917000000
C    -0.959000000     3.180000000    -6.313000000
C    -1.845000000     2.663000000    -5.328000000
H    -1.895000000     3.140000000    -4.353000000
C    -0.740000000     2.579000000    -7.521000000
H     0.013000000     2.998000000    -8.183000000
C    -1.449000000     1.420000000    -7.849000000
H    -1.321000000     0.866000000    -8.775000000
C    -2.357000000     0.923000000    -6.925000000
H    -2.987000000     0.060000000    -7.122000000
C    -2.551000000     1.537000000    -5.658000000
O    -3.581000000     0.947000000    -4.906000000
C    -3.519000000    -0.215000000    -4.087000000
C    -4.696000000    -0.726000000    -3.502000000
H    -5.609000000    -0.280000000    -3.889000000
C    -4.656000000    -1.820000000    -2.611000000
O    -5.828000000    -2.372000000    -2.137000000
C    -6.005000000    -3.368000000    -1.212000000
C    -5.789000000    -3.030000000     0.177000000
H    -5.168000000    -2.193000000     0.486000000
C    -6.459000000    -4.668000000    -1.589000000
H    -6.691000000    -4.902000000    -2.625000000
C    -6.929000000    -5.506000000    -0.611000000
H    -7.333000000    -6.448000000    -0.971000000
C    -6.760000000    -5.193000000     0.759000000
H    -6.951000000    -6.038000000     1.416000000
C    -6.166000000    -3.949000000     1.174000000
O    -6.024000000    -3.676000000     2.532000000
C    -4.831000000    -3.132000000     3.081000000
C    -5.032000000    -1.922000000     3.752000000
H    -6.050000000    -1.558000000     3.857000000
C    -3.911000000    -1.239000000     4.237000000
O    -4.025000000    -0.048000000     4.942000000
C    -3.057000000     0.540000000     5.643000000
C    -2.772000000     0.030000000     6.936000000
H    -3.101000000    -0.967000000     7.217000000
C    -1.851000000     0.700000000     7.812000000
H    -1.590000000     0.290000000     8.785000000
C    -1.268000000     1.912000000     7.352000000
H    -0.495000000     2.499000000     7.840000000
C    -1.571000000     2.386000000     6.085000000
C    -2.521000000     1.770000000     5.247000000
H    -2.811000000     2.156000000     4.273000000
C    -2.582000000    -0.186000000    -0.528000000
H    -3.646000000    -0.398000000    -0.470000000
C    -1.673000000    -1.102000000    -0.020000000
H    -2.167000000    -2.031000000     0.252000000
C    -0.319000000    -0.769000000    -0.014000000
H     0.459000000    -1.462000000     0.399000000
C     0.111000000     0.434000000    -0.483000000
H     1.096000000     0.878000000    -0.368000000
C    -0.817000000     1.340000000    -0.960000000
H    -0.594000000     2.347000000    -1.302000000
C    -2.197000000     1.041000000    -0.978000000
C    -3.249000000     1.913000000    -1.605000000
O    -2.920000000     2.967000000    -2.064000000
O    -4.444000000     1.753000000    -1.439000000
O    -8.675000000    -1.066000000    -0.772000000
H    -8.393000000    -0.541000000    -1.521000000
H    -7.972000000    -0.966000000    -0.130000000
O    -2.626000000     4.704000000     0.918000000
H    -2.466000000     5.033000000     0.034000000
H    -2.600000000     3.751000000     0.828000000
O    -2.912000000     5.238000000     3.498000000
H    -2.504000000     6.101000000     3.433000000
H    -3.062000000     4.975000000     2.591000000
O    -2.750000000     6.267000000    -5.110000000
H    -3.232000000     5.598000000    -4.623000000
H    -3.232000000     6.358000000    -5.932000000
O    -7.690000000     5.275000000     2.004000000
H    -7.431000000     4.685000000     1.297000000
H    -6.887000000     5.744000000     2.232000000
O    -1.807000000     5.321000000    -1.541000000
H    -1.142000000     5.668000000    -2.135000000
H    -2.111000000     4.519000000    -1.965000000
O    -6.570000000     2.602000000    -5.625000000
H    -6.801000000     2.407000000    -4.716000000
H    -7.304000000     3.122000000    -5.951000000
O    -3.689000000     1.976000000     1.975000000
H    -3.034000000     1.290000000     2.104000000
H    -4.146000000     2.032000000     2.815000000
O    -4.150000000     6.830000000    -1.085000000
H    -3.449000000     6.178000000    -1.083000000
H    -3.729000000     7.635000000    -0.784000000
O    -6.431000000     6.965000000    -2.657000000
H    -5.603000000     6.844000000    -2.193000000
H    -7.009000000     7.374000000    -2.013000000
O    -6.016000000     0.904000000     0.626000000
H    -5.592000000     1.428000000     1.305000000
H    -5.546000000     1.126000000    -0.178000000
O    -7.130000000     5.497000000    -4.566000000
H    -6.914000000     6.148000000    -3.899000000
H    -6.422000000     4.854000000    -4.511000000
O    -5.408000000     0.656000000    -6.912000000
H    -4.720000000     0.643000000    -6.247000000
H    -5.940000000     1.421000000    -6.691000000
O    -8.521000000     4.031000000    -1.005000000
H    -7.640000000     4.196000000    -0.668000000
H    -8.749000000     3.165000000    -0.665000000
O    -4.283000000     4.258000000    -3.944000000
H    -4.094000000     3.657000000    -4.664000000
H    -4.141000000     3.738000000    -3.154000000
O    -5.787000000     4.149000000    -0.475000000
H    -5.314000000     3.318000000    -0.446000000
H    -5.103000000     4.816000000    -0.407000000
O    -8.715000000     0.441000000    -3.137000000
H    -8.321000000    -0.295000000    -3.607000000
H    -8.086000000     1.156000000    -3.242000000
O    -4.468000000     4.038000000    -6.616000000
H    -4.741000000     4.930000000    -6.405000000
H    -5.177000000     3.486000000    -6.285000000
O    -6.570000000     2.386000000    -2.965000000
H    -6.799000000     3.157000000    -2.446000000
H    -5.780000000     2.043000000    -2.549000000
