215
-1445.73529
C    -2.159000000     0.498000000     5.152000000
H    -3.030000000    -0.051000000     4.801000000
C    -1.856000000     1.640000000     4.387000000
C    -0.755000000     2.420000000     4.739000000
H    -0.429000000     3.314000000     4.214000000
C    -2.583000000     1.854000000     3.063000000
O    -3.901000000     1.200000000     2.972000000
H    -1.943000000     1.465000000     2.258000000
O    -2.850000000     3.232000000     2.847000000
C    -2.632000000     3.766000000     1.668000000
C    -1.334000000     4.293000000     1.397000000
H    -0.652000000     4.614000000     2.180000000
C    -0.911000000     4.538000000     0.068000000
O     0.352000000     5.015000000    -0.049000000
C    -1.854000000     4.330000000    -0.973000000
C    -1.494000000     4.719000000    -2.391000000
H    -2.440000000     4.723000000    -2.936000000
C    -0.787000000     3.637000000    -3.154000000
C    -1.534000000     2.720000000    -3.879000000
H    -2.619000000     2.745000000    -3.954000000
H    -1.092000000     5.708000000    -2.622000000
C    -3.159000000     3.776000000    -0.696000000
H    -3.890000000     3.729000000    -1.499000000
C    -3.529000000     3.500000000     0.593000000
C    -4.824000000     2.780000000     0.769000000
H    -5.484000000     3.225000000     0.022000000
H    -5.272000000     3.112000000     1.708000000
C    -4.724000000     1.260000000     0.678000000
C    -4.991000000     0.679000000    -0.541000000
H    -5.343000000     1.215000000    -1.419000000
C    -4.203000000     0.569000000     1.801000000
C    -3.946000000    -0.832000000     1.648000000
H    -3.460000000    -1.454000000     2.395000000
C    -4.214000000    -1.422000000     0.407000000
O    -3.985000000    -2.766000000     0.318000000
C    -2.798000000    -3.247000000    -0.359000000
C    -2.083000000    -4.343000000     0.439000000
C    -1.285000000    -5.270000000    -0.262000000
H    -1.372000000    -5.363000000    -1.341000000
C    -1.863000000    -4.166000000     1.832000000
H    -2.362000000    -3.339000000     2.331000000
O    -2.990000000    -3.453000000    -1.759000000
H    -2.003000000    -2.489000000    -0.300000000
C    -4.707000000    -0.678000000    -0.634000000
C    -4.896000000    -1.403000000    -1.933000000
H    -5.636000000    -0.921000000    -2.575000000
H    -5.258000000    -2.429000000    -1.838000000
C    -3.654000000    -1.407000000    -2.806000000
C    -3.354000000    -0.459000000    -3.757000000
H    -4.038000000     0.367000000    -3.935000000
C    -2.769000000    -2.462000000    -2.643000000
C    -1.585000000    -2.510000000    -3.228000000
H    -0.855000000    -3.289000000    -3.020000000
C    -1.192000000    -1.467000000    -4.051000000
O     0.050000000    -1.586000000    -4.665000000
C     1.088000000    -0.896000000    -3.901000000
C     2.309000000    -1.771000000    -3.876000000
C     2.174000000    -3.172000000    -3.678000000
H     1.185000000    -3.622000000    -3.645000000
C     3.536000000    -1.191000000    -3.883000000
H     3.605000000    -0.148000000    -4.184000000
O     1.277000000     0.397000000    -4.626000000
H     0.862000000    -0.837000000    -2.826000000
C    -2.083000000    -0.455000000    -4.401000000
C    -1.727000000     0.695000000    -5.298000000
H    -2.648000000     1.061000000    -5.757000000
H    -1.090000000     0.317000000    -6.100000000
C    -0.856000000     1.693000000    -4.556000000
C     0.509000000     1.457000000    -4.274000000
C     1.186000000     2.388000000    -3.470000000
H     2.208000000     2.233000000    -3.132000000
C     0.619000000     3.508000000    -2.960000000
O     1.432000000     4.286000000    -2.092000000
C     1.278000000     4.099000000    -0.648000000
H     0.913000000     3.068000000    -0.526000000
C     2.629000000     4.070000000     0.036000000
C     2.831000000     4.572000000     1.359000000
H     1.990000000     5.003000000     1.895000000
C     3.655000000     3.298000000    -0.530000000
H     3.474000000     2.766000000    -1.461000000
C     4.850000000     3.012000000     0.109000000
O     5.744000000     2.156000000    -0.411000000
C     5.068000000     3.543000000     1.353000000
H     6.004000000     3.371000000     1.878000000
C     4.116000000     4.396000000     1.927000000
O     4.305000000     4.842000000     3.241000000
C     3.286000000     4.866000000     4.132000000
C     2.510000000     3.788000000     4.446000000
H     2.794000000     2.866000000     3.946000000
C     3.050000000     6.128000000     4.757000000
H     3.565000000     6.993000000     4.345000000
C     2.043000000     6.269000000     5.715000000
H     1.865000000     7.250000000     6.146000000
C     1.350000000     5.108000000     6.140000000
H     0.822000000     5.115000000     7.090000000
C     1.634000000     3.891000000     5.523000000
O     1.129000000     2.770000000     6.168000000
C     0.003000000     2.055000000     5.886000000
C    -0.308000000     0.866000000     6.585000000
H     0.357000000     0.421000000     7.321000000
C    -1.322000000     0.067000000     6.170000000
O    -1.510000000    -1.108000000     6.910000000
C    -1.952000000    -2.241000000     6.280000000
C    -1.104000000    -2.880000000     5.404000000
H    -0.108000000    -2.521000000     5.157000000
C    -3.254000000    -2.556000000     6.380000000
H    -3.896000000    -1.874000000     6.932000000
C    -3.701000000    -3.698000000     5.699000000
H    -4.767000000    -3.855000000     5.559000000
C    -2.787000000    -4.510000000     5.068000000
H    -3.080000000    -5.409000000     4.533000000
C    -1.488000000    -4.076000000     4.772000000
O    -0.701000000    -4.881000000     3.902000000
C    -0.925000000    -5.006000000     2.554000000
C    -0.358000000    -6.015000000     1.813000000
H     0.320000000    -6.705000000     2.309000000
C    -0.459000000    -6.071000000     0.452000000
O     0.291000000    -7.048000000    -0.194000000
C     0.768000000    -7.014000000    -1.500000000
C     1.839000000    -6.217000000    -1.791000000
H     2.371000000    -5.636000000    -1.042000000
C     0.158000000    -7.862000000    -2.423000000
H    -0.668000000    -8.502000000    -2.123000000
C     0.580000000    -7.848000000    -3.741000000
H     0.164000000    -8.432000000    -4.557000000
C     1.594000000    -7.020000000    -4.078000000
H     2.008000000    -6.971000000    -5.082000000
C     2.206000000    -6.175000000    -3.134000000
O     3.298000000    -5.371000000    -3.491000000
C     3.366000000    -3.960000000    -3.640000000
C     4.555000000    -3.296000000    -3.868000000
H     5.485000000    -3.853000000    -3.792000000
C     4.689000000    -1.910000000    -3.853000000
O     5.917000000    -1.301000000    -3.854000000
C     6.074000000     0.016000000    -3.397000000
C     6.271000000     0.906000000    -4.402000000
H     6.329000000     0.534000000    -5.422000000
C     6.074000000     2.323000000    -4.177000000
H     6.033000000     3.048000000    -4.986000000
C     5.952000000     2.738000000    -2.807000000
H     5.915000000     3.803000000    -2.595000000
C     5.945000000     1.818000000    -1.766000000
C     5.892000000     0.448000000    -2.094000000
H     5.640000000    -0.295000000    -1.342000000
C     1.509000000     0.367000000     2.440000000
H     1.277000000     0.379000000     3.502000000
C     0.586000000     0.314000000     1.394000000
H    -0.479000000     0.232000000     1.595000000
C     1.041000000     0.243000000     0.066000000
H     0.310000000     0.090000000    -0.729000000
C     2.400000000     0.309000000    -0.239000000
H     2.707000000     0.289000000    -1.282000000
C     3.326000000     0.342000000     0.822000000
H     4.394000000     0.319000000     0.618000000
C     2.906000000     0.394000000     2.173000000
C     3.847000000     0.356000000     3.342000000
O     4.974000000     0.782000000     3.279000000
O     3.452000000     0.001000000     4.424000000
O     3.567000000     0.004000000     7.486000000
H     3.676000000     0.189000000     6.553000000
H     4.449000000     0.076000000     7.850000000
O     8.670000000    -0.338000000     5.632000000
H     9.198000000    -0.081000000     6.389000000
H     8.608000000     0.457000000     5.103000000
O     7.070000000    -2.056000000    -0.310000000
H     7.866000000    -2.509000000    -0.030000000
H     7.019000000    -1.288000000     0.259000000
O     6.194000000     2.822000000     4.379000000
H     5.666000000     3.620000000     4.338000000
H     5.637000000     2.146000000     3.995000000
O     5.414000000    -3.673000000     6.804000000
H     6.129000000    -4.155000000     6.389000000
H     5.271000000    -2.918000000     6.233000000
O     1.597000000    -5.063000000     5.706000000
H     2.006000000    -4.206000000     5.587000000
H     0.856000000    -5.062000000     5.101000000
O     5.821000000    -1.507000000     5.033000000
H     6.456000000    -0.815000000     5.217000000
H     5.025000000    -1.040000000     4.777000000
O     8.949000000     2.042000000     4.121000000
H     8.601000000     2.929000000     4.210000000
H     9.054000000     1.920000000     3.177000000
O     5.975000000    -2.885000000     2.612000000
H     5.874000000    -2.754000000     3.555000000
H     6.249000000    -2.030000000     2.279000000
O     6.778000000    -0.180000000     1.536000000
H     6.136000000     0.158000000     2.160000000
H     7.582000000     0.299000000     1.735000000
O     2.698000000    -2.870000000    -0.001000000
H     2.256000000    -2.024000000     0.060000000
H     2.475000000    -3.317000000     0.816000000
O     9.271000000    -2.684000000     4.353000000
H    10.169000000    -2.839000000     4.646000000
H     9.131000000    -1.748000000     4.496000000
O     3.245000000    -3.936000000     2.559000000
H     4.189000000    -3.800000000     2.478000000
H     3.141000000    -4.888000000     2.584000000
O     2.364000000    -2.503000000     7.863000000
H     2.861000000    -1.834000000     8.333000000
H     2.564000000    -2.345000000     6.940000000
O     6.238000000     0.205000000     9.282000000
H     6.486000000     0.816000000     8.589000000
H     6.239000000     0.735000000    10.080000000
O     2.414000000     2.530000000     8.828000000
H     2.031000000     2.466000000     7.953000000
H     2.852000000     1.689000000     8.959000000
O     2.630000000    -2.551000000     4.937000000
H     2.803000000    -2.778000000     4.024000000
H     2.664000000    -1.594000000     4.957000000
O     7.129000000     2.345000000     7.195000000
H     6.801000000     3.243000000     7.231000000
H     6.948000000     2.059000000     6.299000000
O     5.129000000    -3.963000000    -0.689000000
H     4.306000000    -3.489000000    -0.578000000
H     5.807000000    -3.308000000    -0.525000000
