215
-1475.86839
C    -1.958000000     0.296000000     5.068000000
H    -2.765000000    -0.352000000     4.736000000
C    -1.686000000     1.473000000     4.392000000
C    -0.616000000     2.249000000     4.658000000
H    -0.467000000     3.163000000     4.089000000
C    -2.531000000     1.713000000     3.113000000
O    -3.850000000     1.122000000     3.257000000
H    -2.105000000     1.190000000     2.244000000
O    -2.680000000     3.066000000     2.828000000
C    -2.544000000     3.376000000     1.458000000
C    -1.352000000     3.956000000     1.022000000
H    -0.498000000     4.238000000     1.633000000
C    -1.226000000     4.270000000    -0.333000000
O     0.061000000     4.720000000    -0.753000000
C    -2.246000000     4.052000000    -1.269000000
C    -2.064000000     4.346000000    -2.792000000
H    -3.023000000     4.450000000    -3.305000000
C    -1.384000000     3.110000000    -3.455000000
C    -2.147000000     2.168000000    -4.111000000
H    -3.231000000     2.162000000    -4.179000000
H    -1.494000000     5.269000000    -2.916000000
C    -3.488000000     3.561000000    -0.789000000
H    -4.310000000     3.409000000    -1.483000000
C    -3.624000000     3.209000000     0.550000000
C    -4.962000000     2.474000000     0.926000000
H    -5.765000000     2.752000000     0.241000000
H    -5.316000000     2.807000000     1.904000000
C    -4.842000000     0.967000000     1.018000000
C    -5.093000000     0.236000000    -0.205000000
H    -5.585000000     0.767000000    -1.016000000
C    -4.295000000     0.385000000     2.163000000
C    -4.063000000    -0.971000000     2.135000000
H    -3.465000000    -1.390000000     2.940000000
C    -4.345000000    -1.689000000     1.005000000
O    -3.914000000    -3.027000000     1.053000000
C    -2.632000000    -3.141000000     0.398000000
C    -1.681000000    -4.002000000     1.201000000
C    -0.363000000    -4.201000000     0.688000000
H    -0.279000000    -3.726000000    -0.286000000
C    -1.857000000    -4.295000000     2.551000000
H    -2.839000000    -4.219000000     3.011000000
O    -2.764000000    -3.786000000    -0.876000000
H    -2.102000000    -2.178000000     0.364000000
C    -4.823000000    -1.095000000    -0.170000000
C    -5.130000000    -1.934000000    -1.384000000
H    -5.968000000    -1.592000000    -1.996000000
H    -5.397000000    -2.940000000    -1.053000000
C    -3.827000000    -1.939000000    -2.269000000
C    -3.684000000    -1.106000000    -3.416000000
H    -4.556000000    -0.531000000    -3.715000000
C    -2.790000000    -2.885000000    -1.995000000
C    -1.612000000    -2.861000000    -2.728000000
H    -0.863000000    -3.617000000    -2.507000000
C    -1.384000000    -1.893000000    -3.652000000
O    -0.135000000    -2.017000000    -4.294000000
C     0.893000000    -1.012000000    -4.213000000
C     2.237000000    -1.640000000    -4.327000000
C     2.375000000    -2.960000000    -3.940000000
H     1.549000000    -3.611000000    -3.668000000
C     3.358000000    -0.820000000    -4.568000000
H     3.176000000     0.206000000    -4.877000000
O     0.620000000    -0.045000000    -5.201000000
H     0.665000000    -0.460000000    -3.289000000
C    -2.437000000    -1.122000000    -4.096000000
C    -2.327000000    -0.074000000    -5.222000000
H    -3.334000000     0.245000000    -5.499000000
H    -1.830000000    -0.483000000    -6.104000000
C    -1.526000000     1.082000000    -4.698000000
C    -0.078000000     1.041000000    -4.708000000
C     0.629000000     1.994000000    -4.080000000
H     1.710000000     1.881000000    -4.095000000
C    -0.022000000     2.962000000    -3.430000000
O     0.821000000     3.818000000    -2.709000000
C     0.877000000     3.671000000    -1.251000000
H     0.517000000     2.695000000    -0.893000000
C     2.317000000     3.854000000    -0.711000000
C     2.449000000     4.225000000     0.601000000
H     1.656000000     4.707000000     1.166000000
C     3.441000000     3.399000000    -1.466000000
H     3.283000000     3.135000000    -2.508000000
C     4.694000000     3.282000000    -0.778000000
O     5.816000000     2.750000000    -1.332000000
C     4.791000000     3.663000000     0.606000000
H     5.800000000     3.661000000     1.012000000
C     3.704000000     4.220000000     1.236000000
O     3.948000000     4.516000000     2.544000000
C     3.034000000     4.780000000     3.510000000
C     2.751000000     3.730000000     4.367000000
H     3.239000000     2.761000000     4.298000000
C     2.239000000     5.955000000     3.484000000
H     2.438000000     6.781000000     2.806000000
C     1.219000000     6.009000000     4.416000000
H     0.700000000     6.956000000     4.543000000
C     1.007000000     4.991000000     5.287000000
H     0.162000000     5.083000000     5.964000000
C     1.712000000     3.820000000     5.277000000
O     1.415000000     2.706000000     6.010000000
C     0.316000000     1.844000000     5.674000000
C     0.119000000     0.695000000     6.367000000
H     0.806000000     0.494000000     7.185000000
C    -1.095000000    -0.036000000     6.132000000
O    -1.337000000    -1.105000000     6.948000000
C    -1.887000000    -2.224000000     6.443000000
C    -1.146000000    -3.096000000     5.668000000
H    -0.122000000    -2.954000000     5.331000000
C    -3.062000000    -2.611000000     7.027000000
H    -3.588000000    -2.020000000     7.773000000
C    -3.663000000    -3.798000000     6.595000000
H    -4.635000000    -4.127000000     6.953000000
C    -3.087000000    -4.584000000     5.665000000
H    -3.589000000    -5.484000000     5.319000000
C    -1.770000000    -4.268000000     5.309000000
O    -1.116000000    -5.266000000     4.655000000
C    -0.864000000    -4.933000000     3.313000000
C     0.354000000    -5.230000000     2.756000000
H     1.092000000    -5.863000000     3.242000000
C     0.660000000    -4.761000000     1.439000000
O     1.914000000    -5.103000000     0.938000000
C     2.144000000    -5.656000000    -0.340000000
C     2.950000000    -4.993000000    -1.296000000
H     3.524000000    -4.123000000    -0.986000000
C     1.432000000    -6.719000000    -0.794000000
H     0.774000000    -7.253000000    -0.115000000
C     1.500000000    -7.179000000    -2.126000000
H     0.897000000    -8.021000000    -2.456000000
C     2.340000000    -6.586000000    -3.050000000
H     2.271000000    -6.767000000    -4.119000000
C     3.091000000    -5.502000000    -2.580000000
O     3.861000000    -4.860000000    -3.492000000
C     3.651000000    -3.537000000    -3.916000000
C     4.757000000    -2.712000000    -4.248000000
H     5.757000000    -3.137000000    -4.227000000
C     4.666000000    -1.331000000    -4.473000000
O     5.788000000    -0.571000000    -4.806000000
C     6.128000000     0.687000000    -4.368000000
C     6.700000000     1.591000000    -5.234000000
H     7.024000000     1.316000000    -6.235000000
C     6.847000000     2.909000000    -4.775000000
H     7.240000000     3.684000000    -5.428000000
C     6.476000000     3.314000000    -3.515000000
H     6.556000000     4.352000000    -3.201000000
C     5.988000000     2.360000000    -2.620000000
C     5.810000000     1.014000000    -3.071000000
H     5.457000000     0.272000000    -2.360000000
C     0.753000000    -0.259000000     2.470000000
H     0.435000000    -0.624000000     3.443000000
C    -0.183000000    -0.347000000     1.473000000
H    -1.147000000    -0.693000000     1.837000000
C     0.146000000    -0.082000000     0.133000000
H    -0.650000000    -0.202000000    -0.579000000
C     1.447000000     0.373000000    -0.172000000
H     1.657000000     0.706000000    -1.185000000
C     2.413000000     0.406000000     0.795000000
H     3.446000000     0.530000000     0.479000000
C     2.081000000     0.107000000     2.112000000
C     3.102000000     0.199000000     3.189000000
O     4.078000000     0.860000000     2.926000000
O     3.054000000    -0.501000000     4.222000000
O     3.920000000     0.907000000     6.510000000
H     3.605000000     0.427000000     5.744000000
H     4.842000000     0.662000000     6.583000000
O     9.433000000    -0.815000000     5.830000000
H    10.298000000    -0.774000000     5.421000000
H     8.873000000    -0.288000000     5.259000000
O     5.868000000    -1.887000000    -0.947000000
H     5.504000000    -2.540000000    -0.350000000
H     6.119000000    -1.157000000    -0.380000000
O     2.013000000     5.115000000     8.682000000
H     2.226000000     4.419000000     8.059000000
H     2.699000000     5.058000000     9.348000000
O     5.974000000     2.560000000     3.428000000
H     5.755000000     3.210000000     2.761000000
H     5.222000000     1.968000000     3.442000000
O     3.330000000    -5.545000000     4.823000000
H     3.770000000    -5.956000000     4.079000000
H     3.455000000    -4.606000000     4.687000000
O     5.880000000     0.058000000     1.034000000
H     5.270000000     0.563000000     1.573000000
H     6.713000000     0.112000000     1.501000000
O     6.272000000    -3.762000000     5.593000000
H     6.329000000    -4.693000000     5.377000000
H     6.437000000    -3.313000000     4.764000000
O     9.239000000    -0.988000000     0.096000000
H     8.863000000    -1.330000000     0.907000000
H     9.953000000    -0.419000000     0.384000000
O     8.107000000     1.116000000     4.182000000
H     7.242000000     1.524000000     4.137000000
H     8.680000000     1.715000000     3.704000000
O     6.008000000    -1.278000000     4.192000000
H     5.164000000    -1.167000000     4.629000000
H     5.866000000    -0.944000000     3.307000000
O     3.382000000    -3.103000000     2.970000000
H     3.277000000    -2.295000000     3.471000000
H     2.606000000    -3.141000000     2.411000000
O     7.989000000    -2.002000000     2.238000000
H     7.658000000    -2.808000000     1.840000000
H     7.460000000    -1.891000000     3.029000000
O     5.758000000    -3.767000000     1.480000000
H     5.007000000    -3.594000000     2.047000000
H     5.766000000    -4.719000000     1.376000000
O     3.320000000     2.525000000     8.681000000
H     3.982000000     3.161000000     8.413000000
H     3.178000000     1.984000000     7.904000000
O     5.442000000    -1.422000000     9.023000000
H     6.241000000    -1.363000000     9.548000000
H     5.615000000    -0.870000000     8.261000000
O     2.391000000    -2.598000000     5.895000000
H     2.337000000    -1.693000000     5.588000000
H     3.277000000    -2.679000000     6.248000000
O     6.471000000     0.159000000     7.244000000
H     6.953000000     0.796000000     7.771000000
H     7.126000000    -0.201000000     6.645000000
O     5.783000000     3.470000000     7.102000000
H     6.254000000     4.084000000     6.539000000
H     5.287000000     2.921000000     6.495000000
