215
-1459.97444
C    -1.707000000     0.646000000     5.284000000
H    -2.436000000    -0.139000000     5.098000000
C    -1.713000000     1.841000000     4.512000000
C    -0.752000000     2.818000000     4.877000000
H    -0.624000000     3.680000000     4.226000000
C    -2.523000000     1.923000000     3.171000000
O    -3.762000000     1.290000000     3.235000000
H    -1.891000000     1.472000000     2.391000000
O    -2.729000000     3.334000000     2.905000000
C    -2.546000000     3.802000000     1.596000000
C    -1.301000000     4.170000000     1.195000000
H    -0.556000000     4.296000000     1.977000000
C    -1.012000000     4.580000000    -0.109000000
O     0.339000000     4.805000000    -0.414000000
C    -1.909000000     4.334000000    -1.151000000
C    -1.664000000     4.547000000    -2.666000000
H    -2.664000000     4.647000000    -3.094000000
C    -0.989000000     3.365000000    -3.305000000
C    -1.726000000     2.465000000    -4.052000000
H    -2.779000000     2.713000000    -4.162000000
H    -1.053000000     5.446000000    -2.764000000
C    -3.153000000     3.786000000    -0.833000000
H    -3.979000000     3.553000000    -1.499000000
C    -3.522000000     3.563000000     0.551000000
C    -4.868000000     2.824000000     0.895000000
H    -5.589000000     3.225000000     0.179000000
H    -5.196000000     3.285000000     1.829000000
C    -4.737000000     1.331000000     0.963000000
C    -4.945000000     0.615000000    -0.172000000
H    -5.334000000     1.105000000    -1.061000000
C    -4.294000000     0.647000000     2.113000000
C    -4.068000000    -0.708000000     2.025000000
H    -3.668000000    -1.134000000     2.941000000
C    -4.384000000    -1.450000000     0.907000000
O    -4.063000000    -2.810000000     0.885000000
C    -2.926000000    -3.228000000     0.117000000
C    -1.952000000    -4.210000000     0.774000000
C    -1.346000000    -5.243000000     0.058000000
H    -1.653000000    -5.450000000    -0.964000000
C    -1.552000000    -3.928000000     2.070000000
H    -2.054000000    -3.188000000     2.687000000
O    -3.309000000    -3.732000000    -1.155000000
H    -2.257000000    -2.375000000    -0.063000000
C    -4.888000000    -0.758000000    -0.190000000
C    -5.139000000    -1.555000000    -1.486000000
H    -5.929000000    -1.123000000    -2.104000000
H    -5.410000000    -2.575000000    -1.203000000
C    -3.837000000    -1.775000000    -2.338000000
C    -3.525000000    -0.842000000    -3.375000000
H    -4.191000000    -0.017000000    -3.618000000
C    -3.042000000    -2.885000000    -2.145000000
C    -1.812000000    -2.968000000    -2.783000000
H    -1.116000000    -3.724000000    -2.425000000
C    -1.451000000    -1.959000000    -3.699000000
O    -0.171000000    -2.093000000    -4.210000000
C     0.798000000    -1.114000000    -3.936000000
C     2.109000000    -1.857000000    -3.823000000
C     2.113000000    -3.245000000    -3.536000000
H     1.154000000    -3.710000000    -3.321000000
C     3.332000000    -1.271000000    -4.186000000
H     3.311000000    -0.251000000    -4.560000000
O     0.828000000    -0.015000000    -4.920000000
H     0.640000000    -0.655000000    -2.949000000
C    -2.359000000    -0.972000000    -4.135000000
C    -2.015000000     0.183000000    -5.136000000
H    -2.961000000     0.602000000    -5.486000000
H    -1.582000000    -0.291000000    -6.019000000
C    -1.165000000     1.291000000    -4.612000000
C     0.220000000     1.146000000    -4.539000000
C     0.967000000     2.058000000    -3.769000000
H     2.010000000     1.784000000    -3.633000000
C     0.372000000     3.123000000    -3.202000000
O     1.157000000     3.878000000    -2.400000000
C     1.101000000     3.697000000    -0.968000000
H     0.535000000     2.789000000    -0.713000000
C     2.484000000     3.657000000    -0.326000000
C     2.695000000     3.975000000     1.051000000
H     1.874000000     4.362000000     1.649000000
C     3.499000000     3.037000000    -1.085000000
H     3.197000000     2.509000000    -1.986000000
C     4.758000000     2.823000000    -0.496000000
O     5.801000000     2.280000000    -1.202000000
C     4.997000000     3.073000000     0.868000000
H     5.944000000     2.846000000     1.351000000
C     3.969000000     3.690000000     1.606000000
O     4.204000000     3.807000000     2.953000000
C     3.245000000     4.488000000     3.797000000
C     2.440000000     3.748000000     4.653000000
H     2.441000000     2.663000000     4.729000000
C     3.134000000     5.833000000     3.785000000
H     3.611000000     6.444000000     3.024000000
C     2.227000000     6.514000000     4.583000000
H     2.142000000     7.587000000     4.427000000
C     1.579000000     5.811000000     5.587000000
H     0.897000000     6.354000000     6.237000000
C     1.600000000     4.442000000     5.578000000
O     0.801000000     3.778000000     6.489000000
C     0.074000000     2.688000000     5.980000000
C     0.025000000     1.541000000     6.770000000
H     0.655000000     1.456000000     7.652000000
C    -0.738000000     0.475000000     6.294000000
O    -0.804000000    -0.700000000     7.020000000
C    -1.112000000    -1.888000000     6.471000000
C    -0.479000000    -2.438000000     5.361000000
H     0.336000000    -1.846000000     4.951000000
C    -2.196000000    -2.608000000     6.980000000
H    -2.802000000    -2.232000000     7.801000000
C    -2.447000000    -3.891000000     6.610000000
H    -3.308000000    -4.340000000     7.099000000
C    -1.753000000    -4.438000000     5.565000000
H    -1.993000000    -5.452000000     5.256000000
C    -0.817000000    -3.687000000     4.840000000
O     0.039000000    -4.333000000     3.948000000
C    -0.533000000    -4.734000000     2.728000000
C     0.046000000    -5.785000000     1.999000000
H     0.820000000    -6.326000000     2.537000000
C    -0.356000000    -6.062000000     0.687000000
O     0.225000000    -7.067000000    -0.013000000
C     0.588000000    -6.817000000    -1.327000000
C     1.762000000    -6.074000000    -1.521000000
H     2.225000000    -5.561000000    -0.682000000
C     0.078000000    -7.399000000    -2.499000000
H    -0.789000000    -7.984000000    -2.205000000
C     0.512000000    -7.131000000    -3.764000000
H     0.007000000    -7.570000000    -4.620000000
C     1.640000000    -6.304000000    -3.855000000
H     1.994000000    -5.973000000    -4.828000000
C     2.361000000    -5.901000000    -2.767000000
O     3.490000000    -5.151000000    -2.928000000
C     3.321000000    -3.899000000    -3.435000000
C     4.509000000    -3.219000000    -3.573000000
H     5.397000000    -3.834000000    -3.447000000
C     4.542000000    -1.900000000    -4.044000000
O     5.783000000    -1.254000000    -4.241000000
C     5.827000000     0.114000000    -4.129000000
C     5.711000000     0.983000000    -5.233000000
H     5.657000000     0.630000000    -6.260000000
C     5.602000000     2.385000000    -4.954000000
H     5.406000000     3.103000000    -5.746000000
C     5.676000000     2.859000000    -3.611000000
H     5.535000000     3.923000000    -3.437000000
C     5.805000000     1.956000000    -2.540000000
C     5.927000000     0.610000000    -2.810000000
H     5.820000000    -0.069000000    -1.968000000
C     0.695000000     0.081000000     2.303000000
H     0.389000000     0.037000000     3.345000000
C    -0.253000000    -0.215000000     1.257000000
H    -1.288000000    -0.535000000     1.353000000
C     0.218000000    -0.016000000    -0.047000000
H    -0.450000000    -0.241000000    -0.929000000
C     1.543000000     0.357000000    -0.308000000
H     1.846000000     0.593000000    -1.325000000
C     2.484000000     0.427000000     0.712000000
H     3.507000000     0.666000000     0.434000000
C     2.053000000     0.289000000     2.002000000
C     3.105000000     0.272000000     3.050000000
O     4.319000000     0.386000000     2.809000000
O     2.747000000     0.064000000     4.175000000
O     3.799000000     0.764000000     6.658000000
H     3.278000000     0.405000000     5.940000000
H     4.503000000     1.248000000     6.225000000
O     7.464000000    -2.044000000    -1.324000000
H     7.622000000    -2.952000000    -1.067000000
H     6.826000000    -1.722000000    -0.687000000
O     5.968000000     1.711000000     4.741000000
H     5.906000000     2.596000000     4.383000000
H     5.349000000     1.198000000     4.220000000
O     5.759000000    -3.512000000     6.795000000
H     6.669000000    -3.810000000     6.801000000
H     5.773000000    -2.713000000     6.267000000
O     2.480000000    -5.587000000     5.054000000
H     3.013000000    -5.059000000     4.459000000
H     1.713000000    -5.044000000     5.235000000
O     5.731000000    -1.518000000     4.214000000
H     6.631000000    -1.281000000     3.993000000
H     5.196000000    -0.846000000     3.792000000
O     7.945000000     1.073000000     2.691000000
H     7.597000000     1.298000000     3.554000000
H     8.014000000     1.912000000     2.234000000
O     8.161000000    -3.352000000     2.075000000
H     8.566000000    -3.740000000     2.851000000
H     7.304000000    -3.052000000     2.377000000
O     6.018000000    -0.624000000     0.639000000
H     5.350000000    -0.176000000     1.157000000
H     6.837000000    -0.186000000     0.873000000
O     8.265000000     3.482000000     1.628000000
H     8.957000000     4.077000000     1.918000000
H     8.394000000     3.407000000     0.683000000
O     2.276000000    -2.622000000     0.424000000
H     1.768000000    -2.694000000    -0.383000000
H     2.062000000    -1.754000000     0.765000000
O     3.347000000    -4.431000000     2.395000000
H     4.186000000    -4.101000000     2.073000000
H     2.696000000    -3.841000000     2.016000000
O     9.586000000    -0.948000000     1.461000000
H     9.541000000    -1.896000000     1.590000000
H     9.039000000    -0.586000000     2.158000000
O     2.214000000    -1.831000000     7.981000000
H     2.410000000    -0.895000000     7.927000000
H     2.153000000    -2.116000000     7.069000000
O     6.945000000     6.194000000     2.267000000
H     7.826000000     5.865000000     2.089000000
H     6.456000000     5.423000000     2.555000000
O     2.581000000     1.047000000     8.908000000
H     3.064000000     1.051000000     8.081000000
H     3.247000000     1.217000000     9.574000000
O     2.902000000    -2.242000000     5.299000000
H     3.817000000    -2.521000000     5.333000000
H     2.900000000    -1.502000000     4.692000000
O     8.364000000     1.271000000     6.073000000
H     8.131000000     1.002000000     6.962000000
H     7.534000000     1.539000000     5.679000000
O     5.320000000    -3.214000000     0.426000000
H     4.369000000    -3.243000000     0.320000000
H     5.523000000    -2.282000000     0.508000000
