215
-1429.35446
C    -1.774000000     0.025000000     4.809000000
H    -2.359000000    -0.758000000     4.333000000
C    -1.675000000     1.328000000     4.285000000
C    -0.733000000     2.216000000     4.768000000
H    -0.621000000     3.193000000     4.305000000
C    -2.525000000     1.706000000     3.114000000
O    -3.843000000     1.090000000     3.184000000
H    -1.975000000     1.340000000     2.234000000
O    -2.700000000     3.107000000     3.003000000
C    -2.458000000     3.663000000     1.770000000
C    -1.177000000     4.172000000     1.454000000
H    -0.443000000     4.300000000     2.245000000
C    -0.838000000     4.519000000     0.189000000
O     0.474000000     4.933000000     0.019000000
C    -1.786000000     4.487000000    -0.796000000
C    -1.373000000     4.872000000    -2.159000000
H    -2.276000000     5.220000000    -2.666000000
C    -0.720000000     3.763000000    -2.914000000
C    -1.502000000     2.805000000    -3.549000000
H    -2.585000000     2.865000000    -3.471000000
H    -0.702000000     5.726000000    -2.045000000
C    -3.080000000     4.028000000    -0.540000000
H    -3.662000000     3.842000000    -1.438000000
C    -3.416000000     3.551000000     0.729000000
C    -4.714000000     2.869000000     0.972000000
H    -5.479000000     3.223000000     0.277000000
H    -5.064000000     3.107000000     1.979000000
C    -4.528000000     1.370000000     0.882000000
C    -4.852000000     0.742000000    -0.334000000
H    -5.170000000     1.319000000    -1.199000000
C    -4.273000000     0.558000000     2.008000000
C    -4.064000000    -0.814000000     1.795000000
H    -3.747000000    -1.440000000     2.626000000
C    -4.247000000    -1.394000000     0.598000000
O    -3.943000000    -2.656000000     0.422000000
C    -2.760000000    -3.093000000    -0.273000000
C    -2.218000000    -4.263000000     0.450000000
C    -1.182000000    -5.038000000    -0.165000000
H    -0.791000000    -4.820000000    -1.155000000
C    -2.475000000    -4.500000000     1.794000000
H    -3.069000000    -3.742000000     2.298000000
O    -3.107000000    -3.517000000    -1.591000000
H    -2.068000000    -2.251000000    -0.125000000
C    -4.684000000    -0.607000000    -0.484000000
C    -5.033000000    -1.264000000    -1.869000000
H    -5.693000000    -0.602000000    -2.434000000
H    -5.699000000    -2.099000000    -1.643000000
C    -3.785000000    -1.470000000    -2.700000000
C    -3.396000000    -0.419000000    -3.498000000
H    -4.039000000     0.438000000    -3.684000000
C    -2.979000000    -2.628000000    -2.638000000
C    -1.836000000    -2.728000000    -3.385000000
H    -1.119000000    -3.540000000    -3.284000000
C    -1.352000000    -1.627000000    -4.177000000
O    -0.057000000    -1.677000000    -4.652000000
C     0.966000000    -0.793000000    -4.214000000
C     2.286000000    -1.506000000    -4.208000000
C     2.341000000    -2.790000000    -3.738000000
H     1.372000000    -3.217000000    -3.490000000
C     3.480000000    -0.852000000    -4.585000000
H     3.391000000     0.180000000    -4.916000000
O     0.952000000     0.472000000    -4.998000000
H     0.735000000    -0.722000000    -3.141000000
C    -2.183000000    -0.452000000    -4.203000000
C    -1.855000000     0.733000000    -5.080000000
H    -2.721000000     1.315000000    -5.401000000
H    -1.315000000     0.320000000    -5.935000000
C    -0.991000000     1.753000000    -4.288000000
C     0.420000000     1.601000000    -4.400000000
C     1.201000000     2.490000000    -3.675000000
H     2.282000000     2.432000000    -3.771000000
C     0.673000000     3.574000000    -2.948000000
O     1.444000000     4.289000000    -2.130000000
C     1.366000000     4.032000000    -0.670000000
H     0.843000000     3.065000000    -0.623000000
C     2.699000000     3.753000000     0.015000000
C     2.911000000     3.988000000     1.363000000
H     2.233000000     4.664000000     1.878000000
C     3.717000000     3.149000000    -0.714000000
H     3.511000000     2.885000000    -1.748000000
C     4.946000000     2.732000000    -0.126000000
O     5.984000000     2.189000000    -0.893000000
C     5.113000000     2.989000000     1.199000000
H     6.057000000     2.697000000     1.653000000
C     4.114000000     3.552000000     2.015000000
O     4.379000000     3.863000000     3.310000000
C     3.456000000     4.187000000     4.211000000
C     2.674000000     3.196000000     4.819000000
H     2.872000000     2.154000000     4.579000000
C     3.109000000     5.508000000     4.359000000
H     3.667000000     6.257000000     3.802000000
C     2.184000000     5.949000000     5.274000000
H     2.136000000     7.019000000     5.457000000
C     1.472000000     4.988000000     6.010000000
H     0.655000000     5.296000000     6.657000000
C     1.714000000     3.600000000     5.739000000
O     0.914000000     2.691000000     6.431000000
C    -0.018000000     1.795000000     5.859000000
C    -0.212000000     0.600000000     6.465000000
H     0.241000000     0.349000000     7.421000000
C    -1.045000000    -0.365000000     5.912000000
O    -1.206000000    -1.566000000     6.487000000
C    -2.019000000    -2.597000000     6.085000000
C    -1.483000000    -3.546000000     5.186000000
H    -0.441000000    -3.552000000     4.875000000
C    -3.355000000    -2.683000000     6.582000000
H    -3.791000000    -1.945000000     7.251000000
C    -4.121000000    -3.786000000     6.168000000
H    -5.168000000    -3.857000000     6.451000000
C    -3.568000000    -4.686000000     5.242000000
H    -4.176000000    -5.427000000     4.729000000
C    -2.270000000    -4.537000000     4.720000000
O    -1.782000000    -5.434000000     3.895000000
C    -1.815000000    -5.459000000     2.516000000
C    -0.880000000    -6.259000000     1.919000000
H    -0.295000000    -7.023000000     2.425000000
C    -0.578000000    -6.041000000     0.575000000
O     0.352000000    -6.868000000    -0.023000000
C     0.863000000    -6.660000000    -1.254000000
C     1.905000000    -5.762000000    -1.387000000
H     2.317000000    -5.220000000    -0.539000000
C     0.596000000    -7.566000000    -2.255000000
H    -0.213000000    -8.267000000    -2.071000000
C     1.134000000    -7.423000000    -3.534000000
H     0.859000000    -8.082000000    -4.354000000
C     2.060000000    -6.403000000    -3.727000000
H     2.337000000    -6.284000000    -4.771000000
C     2.497000000    -5.593000000    -2.662000000
O     3.480000000    -4.571000000    -2.718000000
C     3.511000000    -3.459000000    -3.486000000
C     4.713000000    -2.735000000    -3.784000000
H     5.725000000    -3.004000000    -3.492000000
C     4.683000000    -1.541000000    -4.407000000
O     5.900000000    -0.802000000    -4.517000000
C     5.948000000     0.496000000    -4.145000000
C     6.223000000     1.509000000    -5.068000000
H     6.241000000     1.234000000    -6.119000000
C     6.323000000     2.765000000    -4.578000000
H     6.417000000     3.602000000    -5.266000000
C     6.143000000     3.082000000    -3.217000000
H     6.036000000     4.126000000    -2.931000000
C     5.974000000     2.020000000    -2.275000000
C     5.994000000     0.769000000    -2.749000000
H     5.888000000     0.013000000    -1.974000000
C     0.618000000    -0.987000000     2.483000000
H     0.598000000    -1.280000000     3.530000000
C    -0.537000000    -0.877000000     1.691000000
H    -1.508000000    -1.245000000     2.012000000
C    -0.454000000    -0.374000000     0.410000000
H    -1.370000000    -0.379000000    -0.163000000
C     0.803000000    -0.004000000    -0.089000000
H     0.887000000     0.314000000    -1.125000000
C     1.949000000    -0.041000000     0.708000000
H     2.862000000     0.340000000     0.258000000
C     1.878000000    -0.524000000     2.053000000
C     3.088000000    -0.509000000     2.917000000
O     4.098000000     0.133000000     2.581000000
O     3.123000000    -1.098000000     3.973000000
O     4.647000000    -0.465000000     5.962000000
H     4.067000000    -0.675000000     5.230000000
H     5.007000000     0.395000000     5.743000000
O     7.387000000    -3.058000000    -0.767000000
H     7.836000000    -3.653000000    -0.167000000
H     7.048000000    -2.362000000    -0.205000000
O     4.896000000    -3.601000000     7.880000000
H     5.123000000    -2.710000000     8.146000000
H     5.274000000    -3.693000000     7.005000000
O     2.884000000    -5.301000000     7.227000000
H     2.651000000    -4.741000000     6.487000000
H     3.562000000    -4.812000000     7.694000000
O     5.610000000     1.498000000     4.355000000
H     5.543000000     2.391000000     4.016000000
H     5.015000000     0.988000000     3.805000000
O     5.933000000    -3.834000000     5.317000000
H     6.108000000    -4.437000000     4.595000000
H     6.489000000    -3.076000000     5.137000000
O     6.673000000    -0.572000000     0.747000000
H     5.760000000    -0.374000000     0.957000000
H     7.120000000     0.272000000     0.801000000
O     2.908000000    -5.975000000     3.079000000
H     3.815000000    -5.818000000     2.814000000
H     2.664000000    -5.194000000     3.575000000
O     5.806000000    -1.054000000     8.671000000
H     5.451000000    -0.731000000     7.843000000
H     6.128000000    -0.270000000     9.116000000
O     7.800000000     0.996000000     6.091000000
H     8.451000000     1.694000000     6.169000000
H     7.377000000     1.156000000     5.248000000
O     5.275000000    -2.690000000     2.473000000
H     4.632000000    -2.146000000     2.928000000
H     5.659000000    -2.108000000     1.817000000
O     7.717000000    -1.602000000     5.307000000
H     8.659000000    -1.768000000     5.303000000
H     7.632000000    -0.713000000     5.651000000
O     5.832000000    -5.341000000     3.105000000
H     6.075000000    -5.945000000     2.404000000
H     5.855000000    -4.476000000     2.696000000
O     1.765000000    -2.097000000     7.019000000
H     2.423000000    -1.669000000     6.471000000
H     1.384000000    -2.769000000     6.454000000
O     9.181000000    -1.795000000     1.845000000
H     9.789000000    -1.253000000     2.347000000
H     8.313000000    -1.489000000     2.109000000
O     0.402000000    -1.547000000     9.617000000
H     0.897000000    -1.578000000     8.798000000
H     1.070000000    -1.465000000    10.298000000
O     3.163000000    -3.666000000     4.893000000
H     4.117000000    -3.743000000     4.878000000
H     2.984000000    -2.819000000     4.484000000
O     5.809000000     4.914000000     6.967000000
H     5.586000000     4.160000000     6.421000000
H     6.134000000     5.569000000     6.350000000
O     7.688000000     3.840000000     3.394000000
H     8.318000000     3.504000000     2.756000000
H     8.205000000     3.989000000     4.186000000
