215
-1451.93504
C    -2.568000000    -2.338000000     4.312000000
H    -3.013000000    -2.973000000     3.551000000
C    -2.545000000    -0.928000000     4.180000000
C    -1.932000000    -0.183000000     5.158000000
H    -1.944000000     0.883000000     4.945000000
C    -3.150000000    -0.194000000     2.985000000
O    -4.236000000    -1.071000000     2.386000000
H    -2.325000000    -0.217000000     2.258000000
O    -3.613000000     1.091000000     3.223000000
C    -3.359000000     2.099000000     2.263000000
C    -2.349000000     2.984000000     2.473000000
H    -1.724000000     2.958000000     3.362000000
C    -1.992000000     3.783000000     1.427000000
O    -0.783000000     4.432000000     1.588000000
C    -2.776000000     3.930000000     0.277000000
C    -2.331000000     4.875000000    -0.850000000
H    -3.193000000     5.360000000    -1.312000000
C    -1.386000000     4.311000000    -1.954000000
C    -1.905000000     3.692000000    -3.103000000
H    -2.980000000     3.717000000    -3.261000000
H    -1.781000000     5.713000000    -0.417000000
C    -3.932000000     3.129000000     0.137000000
H    -4.566000000     3.170000000    -0.746000000
C    -4.178000000     2.168000000     1.121000000
C    -5.272000000     1.127000000     0.919000000
H    -6.100000000     1.469000000     0.295000000
H    -5.685000000     1.034000000     1.925000000
C    -4.795000000    -0.114000000     0.237000000
C    -4.752000000    -0.173000000    -1.134000000
H    -4.932000000     0.727000000    -1.717000000
C    -4.430000000    -1.173000000     1.006000000
C    -4.144000000    -2.366000000     0.410000000
H    -3.832000000    -3.146000000     1.100000000
C    -3.907000000    -2.420000000    -0.931000000
O    -3.252000000    -3.477000000    -1.487000000
C    -1.963000000    -3.194000000    -1.997000000
C    -0.987000000    -4.292000000    -1.550000000
C    -0.068000000    -4.948000000    -2.462000000
H    -0.207000000    -4.584000000    -3.477000000
C    -0.793000000    -4.601000000    -0.205000000
H    -1.488000000    -4.161000000     0.506000000
O    -1.979000000    -3.088000000    -3.523000000
H    -1.545000000    -2.245000000    -1.629000000
C    -4.348000000    -1.343000000    -1.774000000
C    -4.276000000    -1.394000000    -3.347000000
H    -5.133000000    -0.826000000    -3.717000000
H    -4.487000000    -2.433000000    -3.609000000
C    -2.955000000    -0.931000000    -3.887000000
C    -2.785000000     0.410000000    -4.260000000
H    -3.523000000     1.183000000    -4.062000000
C    -1.906000000    -1.823000000    -4.016000000
C    -0.772000000    -1.417000000    -4.623000000
H     0.159000000    -1.972000000    -4.705000000
C    -0.578000000    -0.054000000    -4.931000000
O     0.756000000     0.373000000    -5.159000000
C     1.371000000     1.083000000    -4.120000000
C     2.793000000     0.712000000    -3.796000000
C     3.027000000    -0.640000000    -3.523000000
H     2.208000000    -1.346000000    -3.411000000
C     3.795000000     1.702000000    -3.575000000
H     3.506000000     2.734000000    -3.759000000
O     1.267000000     2.516000000    -4.436000000
H     0.827000000     0.841000000    -3.196000000
C    -1.565000000     0.923000000    -4.847000000
C    -1.468000000     2.384000000    -5.203000000
H    -2.441000000     2.735000000    -5.553000000
H    -0.777000000     2.425000000    -6.048000000
C    -1.009000000     3.161000000    -4.001000000
C     0.348000000     3.211000000    -3.718000000
C     0.830000000     3.819000000    -2.553000000
H     1.900000000     3.770000000    -2.369000000
C    -0.067000000     4.317000000    -1.625000000
O     0.550000000     4.737000000    -0.434000000
C     0.284000000     3.903000000     0.798000000
H     0.014000000     2.894000000     0.452000000
C     1.550000000     3.848000000     1.664000000
C     1.441000000     3.397000000     3.005000000
H     0.479000000     3.218000000     3.477000000
C     2.831000000     3.940000000     1.120000000
H     2.911000000     3.992000000     0.037000000
C     3.979000000     3.760000000     1.909000000
O     5.262000000     3.679000000     1.343000000
C     3.814000000     3.463000000     3.273000000
H     4.706000000     3.346000000     3.883000000
C     2.563000000     3.197000000     3.841000000
O     2.425000000     2.753000000     5.164000000
C     1.219000000     2.624000000     5.884000000
C     0.620000000     1.363000000     6.102000000
H     0.885000000     0.478000000     5.529000000
C     0.649000000     3.720000000     6.541000000
H     1.125000000     4.678000000     6.351000000
C    -0.423000000     3.573000000     7.362000000
H    -0.729000000     4.467000000     7.899000000
C    -0.925000000     2.322000000     7.714000000
H    -1.660000000     2.159000000     8.498000000
C    -0.408000000     1.198000000     7.090000000
O    -0.838000000    -0.063000000     7.322000000
C    -1.355000000    -0.818000000     6.291000000
C    -1.457000000    -2.225000000     6.440000000
H    -0.980000000    -2.748000000     7.265000000
C    -2.104000000    -2.940000000     5.436000000
O    -2.079000000    -4.339000000     5.457000000
C    -1.947000000    -5.163000000     4.433000000
C    -0.860000000    -5.173000000     3.593000000
H    -0.040000000    -4.460000000     3.604000000
C    -3.032000000    -5.973000000     4.239000000
H    -3.841000000    -5.893000000     4.960000000
C    -3.179000000    -6.702000000     3.099000000
H    -3.982000000    -7.384000000     2.832000000
C    -2.078000000    -6.734000000     2.226000000
H    -2.147000000    -7.399000000     1.368000000
C    -0.940000000    -5.975000000     2.413000000
O     0.113000000    -6.014000000     1.513000000
C     0.076000000    -5.604000000     0.242000000
C     0.911000000    -6.145000000    -0.665000000
H     1.740000000    -6.796000000    -0.396000000
C     0.911000000    -5.816000000    -1.957000000
O     1.953000000    -6.255000000    -2.781000000
C     2.831000000    -5.329000000    -3.330000000
C     3.222000000    -4.181000000    -2.671000000
H     2.944000000    -3.886000000    -1.662000000
C     3.415000000    -5.787000000    -4.519000000
H     3.081000000    -6.717000000    -4.972000000
C     4.404000000    -5.011000000    -5.019000000
H     4.972000000    -5.189000000    -5.929000000
C     4.748000000    -3.834000000    -4.486000000
H     5.485000000    -3.191000000    -4.960000000
C     4.181000000    -3.374000000    -3.289000000
O     4.660000000    -2.219000000    -2.752000000
C     4.330000000    -0.977000000    -3.093000000
C     5.323000000    -0.034000000    -2.967000000
H     6.331000000    -0.319000000    -2.674000000
C     5.065000000     1.310000000    -3.239000000
O     6.037000000     2.249000000    -3.221000000
C     5.926000000     3.262000000    -2.219000000
C     6.397000000     4.606000000    -2.562000000
H     6.722000000     4.864000000    -3.566000000
C     6.520000000     5.620000000    -1.578000000
H     6.880000000     6.632000000    -1.744000000
C     6.194000000     5.276000000    -0.261000000
H     6.233000000     6.077000000     0.472000000
C     5.620000000     4.010000000     0.041000000
C     5.388000000     3.065000000    -0.967000000
H     5.012000000     2.057000000    -0.806000000
C     0.152000000    -1.103000000     1.705000000
H    -0.330000000    -1.711000000     2.466000000
C    -0.517000000    -0.849000000     0.473000000
H    -1.503000000    -1.292000000     0.359000000
C    -0.002000000    -0.052000000    -0.533000000
H    -0.460000000     0.059000000    -1.487000000
C     1.254000000     0.528000000    -0.261000000
H     1.681000000     1.160000000    -1.036000000
C     1.939000000     0.350000000     0.975000000
H     2.859000000     0.887000000     1.192000000
C     1.340000000    -0.398000000     1.985000000
C     2.118000000    -0.804000000     3.221000000
O     3.328000000    -0.656000000     3.142000000
O     1.657000000    -1.412000000     4.118000000
O     4.575000000    -7.617000000     2.653000000
H     4.609000000    -8.208000000     3.406000000
H     4.430000000    -6.752000000     3.034000000
O     4.701000000    -2.730000000     3.648000000
H     4.778000000    -2.832000000     4.597000000
H     4.042000000    -2.045000000     3.534000000
O     4.516000000    -3.021000000     6.549000000
H     4.558000000    -2.282000000     7.156000000
H     3.583000000    -3.226000000     6.486000000
O     1.538000000    -2.088000000     8.832000000
H     1.751000000    -2.586000000     8.042000000
H     2.373000000    -1.715000000     9.113000000
O     8.949000000    -1.770000000     4.746000000
H     8.415000000    -2.043000000     5.492000000
H     8.419000000    -1.987000000     3.980000000
O     7.282000000    -3.191000000     2.785000000
H     6.393000000    -2.956000000     3.050000000
H     7.379000000    -2.812000000     1.912000000
O     4.661000000     0.845000000     4.903000000
H     4.411000000     0.102000000     4.354000000
H     3.862000000     1.366000000     4.980000000
O     4.380000000    -5.386000000     4.226000000
H     4.330000000    -5.319000000     5.180000000
H     4.391000000    -4.478000000     3.923000000
O     1.708000000    -5.597000000     5.466000000
H     1.343000000    -6.382000000     5.875000000
H     2.518000000    -5.896000000     5.053000000
O     5.658000000    -5.565000000    -0.550000000
H     5.152000000    -6.265000000    -0.137000000
H     5.365000000    -4.767000000    -0.110000000
O     6.303000000     2.939000000     5.740000000
H     7.097000000     2.597000000     6.149000000
H     6.000000000     2.229000000     5.174000000
O     5.333000000    -0.516000000     1.304000000
H     5.935000000    -0.064000000     1.895000000
H     4.619000000    -0.811000000     1.869000000
O     4.422000000    -3.283000000     0.538000000
H     4.476000000    -2.331000000     0.456000000
H     3.777000000    -3.428000000     1.230000000
O     1.831000000    -2.996000000     6.188000000
H     1.575000000    -3.870000000     5.894000000
H     1.580000000    -2.418000000     5.468000000
O     6.825000000     1.046000000     2.584000000
H     6.986000000     1.162000000     3.521000000
H     6.297000000     1.805000000     2.336000000
O     7.736000000    -0.846000000    -0.378000000
H     7.950000000     0.077000000    -0.515000000
H     6.887000000    -0.832000000     0.064000000
O     5.460000000    -0.460000000     7.681000000
H     6.266000000     0.032000000     7.838000000
H     5.216000000    -0.240000000     6.782000000
O     3.465000000    -0.393000000     9.773000000
H     3.511000000     0.556000000     9.892000000
H     4.192000000    -0.596000000     9.184000000
O     2.320000000    -3.637000000     2.049000000
H     1.399000000    -3.622000000     1.788000000
H     2.384000000    -2.974000000     2.737000000
