215
-1456.27426
C    -2.240000000    -1.303000000     4.569000000
H    -2.998000000    -2.007000000     4.236000000
C    -2.228000000     0.007000000     4.132000000
C    -1.329000000     0.887000000     4.710000000
H    -1.306000000     1.900000000     4.316000000
C    -3.123000000     0.442000000     2.984000000
O    -4.260000000    -0.398000000     2.713000000
H    -2.386000000     0.472000000     2.169000000
O    -3.580000000     1.752000000     3.158000000
C    -3.474000000     2.561000000     2.048000000
C    -2.317000000     3.321000000     1.989000000
H    -1.696000000     3.459000000     2.870000000
C    -2.013000000     4.057000000     0.897000000
O    -0.884000000     4.822000000     0.879000000
C    -2.821000000     4.114000000    -0.247000000
C    -2.478000000     4.759000000    -1.518000000
H    -3.391000000     4.958000000    -2.083000000
C    -1.473000000     3.900000000    -2.372000000
C    -1.915000000     3.044000000    -3.365000000
H    -2.985000000     2.898000000    -3.495000000
H    -2.021000000     5.695000000    -1.191000000
C    -4.032000000     3.306000000    -0.205000000
H    -4.662000000     3.217000000    -1.086000000
C    -4.373000000     2.589000000     0.936000000
C    -5.435000000     1.536000000     0.920000000
H    -6.199000000     1.888000000     0.223000000
H    -5.914000000     1.501000000     1.900000000
C    -4.983000000     0.121000000     0.465000000
C    -4.899000000    -0.239000000    -0.880000000
H    -5.009000000     0.490000000    -1.678000000
C    -4.487000000    -0.768000000     1.406000000
C    -3.965000000    -1.937000000     0.990000000
H    -3.558000000    -2.559000000     1.783000000
C    -4.117000000    -2.473000000    -0.267000000
O    -3.410000000    -3.603000000    -0.628000000
C    -2.067000000    -3.458000000    -1.117000000
C    -1.155000000    -4.493000000    -0.504000000
C     0.089000000    -4.669000000    -1.064000000
H     0.316000000    -4.041000000    -1.921000000
C    -1.512000000    -5.298000000     0.619000000
H    -2.538000000    -5.297000000     0.978000000
O    -2.118000000    -3.574000000    -2.574000000
H    -1.739000000    -2.426000000    -0.923000000
C    -4.541000000    -1.567000000    -1.254000000
C    -4.455000000    -1.862000000    -2.749000000
H    -5.236000000    -1.255000000    -3.213000000
H    -4.654000000    -2.934000000    -2.812000000
C    -3.103000000    -1.624000000    -3.473000000
C    -2.941000000    -0.390000000    -4.151000000
H    -3.760000000     0.324000000    -4.189000000
C    -1.992000000    -2.447000000    -3.313000000
C    -0.724000000    -2.112000000    -3.858000000
H     0.115000000    -2.795000000    -3.750000000
C    -0.584000000    -0.886000000    -4.490000000
O     0.677000000    -0.561000000    -4.820000000
C     1.406000000     0.252000000    -3.952000000
C     2.884000000    -0.180000000    -3.897000000
C     3.178000000    -1.514000000    -4.013000000
H     2.389000000    -2.223000000    -4.250000000
C     3.931000000     0.674000000    -3.629000000
H     3.721000000     1.716000000    -3.399000000
O     1.285000000     1.620000000    -4.435000000
H     1.010000000     0.229000000    -2.926000000
C    -1.696000000    -0.058000000    -4.560000000
C    -1.591000000     1.289000000    -5.141000000
H    -2.475000000     1.666000000    -5.659000000
H    -0.785000000     1.161000000    -5.867000000
C    -1.041000000     2.276000000    -4.120000000
C     0.330000000     2.461000000    -3.842000000
C     0.822000000     3.202000000    -2.779000000
H     1.866000000     3.349000000    -2.516000000
C    -0.116000000     3.886000000    -2.046000000
O     0.380000000     4.755000000    -1.115000000
C     0.329000000     4.247000000     0.257000000
H     0.211000000     3.154000000     0.292000000
C     1.659000000     4.608000000     0.909000000
C     1.672000000     4.966000000     2.241000000
H     0.760000000     5.242000000     2.765000000
C     2.860000000     4.177000000     0.357000000
H     2.841000000     3.756000000    -0.645000000
C     3.968000000     4.056000000     1.141000000
O     5.130000000     3.505000000     0.699000000
C     3.973000000     4.472000000     2.465000000
H     4.874000000     4.327000000     3.057000000
C     2.866000000     5.014000000     3.010000000
O     2.851000000     5.197000000     4.389000000
C     1.793000000     4.576000000     5.060000000
C     1.835000000     3.180000000     5.121000000
H     2.583000000     2.573000000     4.616000000
C     0.825000000     5.250000000     5.855000000
H     0.879000000     6.332000000     5.765000000
C    -0.114000000     4.554000000     6.669000000
H    -0.884000000     5.062000000     7.244000000
C    -0.039000000     3.184000000     6.719000000
H    -0.754000000     2.691000000     7.373000000
C     0.881000000     2.513000000     5.904000000
O     0.870000000     1.124000000     5.852000000
C    -0.272000000     0.423000000     5.504000000
C    -0.293000000    -0.929000000     5.844000000
H     0.647000000    -1.258000000     6.280000000
C    -1.252000000    -1.820000000     5.409000000
O    -1.189000000    -3.181000000     5.670000000
C    -1.845000000    -4.202000000     4.978000000
C    -1.188000000    -4.791000000     3.882000000
H    -0.215000000    -4.423000000     3.566000000
C    -3.062000000    -4.754000000     5.365000000
H    -3.544000000    -4.263000000     6.207000000
C    -3.501000000    -5.914000000     4.790000000
H    -4.433000000    -6.338000000     5.157000000
C    -2.740000000    -6.636000000     3.875000000
H    -3.079000000    -7.576000000     3.447000000
C    -1.654000000    -5.989000000     3.396000000
O    -0.906000000    -6.664000000     2.380000000
C    -0.557000000    -6.043000000     1.248000000
C     0.716000000    -6.188000000     0.721000000
H     1.486000000    -6.679000000     1.310000000
C     1.051000000    -5.483000000    -0.452000000
O     2.373000000    -5.322000000    -0.867000000
C     2.736000000    -5.354000000    -2.166000000
C     3.496000000    -4.305000000    -2.653000000
H     3.870000000    -3.562000000    -1.953000000
C     2.316000000    -6.366000000    -3.040000000
H     1.655000000    -7.120000000    -2.620000000
C     2.630000000    -6.311000000    -4.410000000
H     2.236000000    -6.945000000    -5.201000000
C     3.445000000    -5.259000000    -4.874000000
H     3.740000000    -5.119000000    -5.911000000
C     3.831000000    -4.282000000    -4.001000000
O     4.696000000    -3.286000000    -4.443000000
C     4.481000000    -1.985000000    -4.031000000
C     5.523000000    -1.110000000    -3.805000000
H     6.497000000    -1.584000000    -3.717000000
C     5.230000000     0.234000000    -3.527000000
O     6.278000000     0.997000000    -3.332000000
C     6.109000000     2.180000000    -2.658000000
C     6.374000000     3.399000000    -3.258000000
H     6.700000000     3.346000000    -4.294000000
C     6.384000000     4.580000000    -2.449000000
H     6.884000000     5.468000000    -2.825000000
C     6.005000000     4.553000000    -1.112000000
H     6.104000000     5.396000000    -0.432000000
C     5.605000000     3.433000000    -0.592000000
C     5.692000000     2.240000000    -1.329000000
H     5.491000000     1.379000000    -0.696000000
C     1.194000000    -1.037000000     1.850000000
H     1.290000000    -1.583000000     2.785000000
C    -0.073000000    -0.786000000     1.311000000
H    -0.975000000    -1.261000000     1.687000000
C    -0.095000000     0.041000000     0.194000000
H    -1.122000000     0.268000000    -0.215000000
C     1.008000000     0.655000000    -0.318000000
H     0.910000000     1.329000000    -1.165000000
C     2.288000000     0.439000000     0.256000000
H     3.192000000     0.864000000    -0.173000000
C     2.403000000    -0.483000000     1.326000000
C     3.664000000    -0.769000000     2.014000000
O     4.658000000    -0.051000000     1.720000000
O     3.797000000    -1.766000000     2.641000000
O     4.277000000    -6.037000000     1.623000000
H     3.564000000    -5.405000000     1.713000000
H     3.861000000    -6.818000000     1.259000000
O     6.083000000    -2.475000000     3.611000000
H     6.082000000    -3.417000000     3.442000000
H     5.187000000    -2.196000000     3.425000000
O     5.190000000    -3.075000000     7.089000000
H     5.985000000    -2.711000000     7.479000000
H     4.632000000    -2.314000000     6.928000000
O     2.620000000    -0.525000000     7.959000000
H     2.326000000    -0.240000000     7.094000000
H     3.546000000    -0.286000000     7.989000000
O     6.236000000    -0.154000000     5.693000000
H     6.820000000     0.408000000     5.183000000
H     5.974000000    -0.843000000     5.082000000
O     6.289000000    -5.006000000     2.781000000
H     7.054000000    -5.202000000     2.239000000
H     5.546000000    -5.323000000     2.269000000
O     5.744000000     1.797000000     3.002000000
H     5.442000000     1.019000000     2.532000000
H     5.765000000     2.485000000     2.338000000
O     4.876000000    -5.333000000     4.953000000
H     5.039000000    -4.661000000     5.615000000
H     5.520000000    -5.154000000     4.267000000
O     2.285000000    -4.670000000     4.601000000
H     2.195000000    -4.436000000     3.677000000
H     3.200000000    -4.933000000     4.693000000
O     8.644000000    -2.194000000     4.721000000
H     8.763000000    -3.065000000     5.099000000
H     7.864000000    -2.276000000     4.171000000
O     7.543000000    -3.846000000    -1.833000000
H     7.181000000    -3.594000000    -0.983000000
H     8.237000000    -3.207000000    -1.996000000
O     7.201000000    -0.367000000     1.082000000
H     7.690000000     0.455000000     1.083000000
H     6.292000000    -0.106000000     1.230000000
O     5.559000000    -3.144000000     0.410000000
H     5.560000000    -2.226000000     0.683000000
H     6.203000000    -3.564000000     0.980000000
O     3.007000000    -2.076000000     4.941000000
H     2.648000000    -2.963000000     4.934000000
H     3.361000000    -1.954000000     4.060000000
O     7.886000000     2.833000000     1.112000000
H     8.560000000     2.461000000     1.682000000
H     7.816000000     3.746000000     1.389000000
O     8.660000000    -2.540000000     1.961000000
H     9.106000000    -2.257000000     2.759000000
H     8.102000000    -1.799000000     1.723000000
O     5.723000000     2.892000000     5.645000000
H     5.195000000     2.199000000     6.043000000
H     5.825000000     2.620000000     4.733000000
O     5.363000000     0.278000000     8.171000000
H     5.292000000     1.232000000     8.200000000
H     5.952000000     0.103000000     7.437000000
O     2.520000000    -4.013000000     1.916000000
H     2.267000000    -3.927000000     0.997000000
H     3.139000000    -3.297000000     2.062000000
