215
-1416.61502
C    -2.254000000    -0.877000000     4.800000000
H    -2.850000000    -1.716000000     4.449000000
C    -2.241000000     0.401000000     4.209000000
C    -1.311000000     1.304000000     4.731000000
H    -1.225000000     2.234000000     4.175000000
C    -2.978000000     0.617000000     2.886000000
O    -4.177000000    -0.246000000     2.701000000
H    -2.198000000     0.327000000     2.167000000
O    -3.355000000     2.033000000     2.725000000
C    -3.379000000     2.651000000     1.489000000
C    -2.358000000     3.617000000     1.421000000
H    -1.922000000     3.981000000     2.348000000
C    -2.051000000     4.144000000     0.141000000
O    -0.928000000     5.019000000     0.100000000
C    -2.824000000     3.778000000    -0.936000000
C    -2.597000000     4.404000000    -2.326000000
H    -3.501000000     4.291000000    -2.929000000
C    -1.616000000     3.523000000    -3.059000000
C    -2.035000000     2.488000000    -3.884000000
H    -3.077000000     2.197000000    -3.991000000
H    -2.324000000     5.459000000    -2.251000000
C    -3.798000000     2.810000000    -0.879000000
H    -4.472000000     2.601000000    -1.705000000
C    -4.109000000     2.292000000     0.373000000
C    -5.320000000     1.378000000     0.601000000
H    -6.143000000     1.484000000    -0.109000000
H    -5.776000000     1.522000000     1.583000000
C    -4.823000000    -0.015000000     0.399000000
C    -4.914000000    -0.536000000    -0.936000000
H    -5.289000000     0.100000000    -1.733000000
C    -4.235000000    -0.757000000     1.451000000
C    -3.730000000    -2.028000000     1.223000000
H    -3.409000000    -2.643000000     2.060000000
C    -3.759000000    -2.485000000    -0.025000000
O    -3.151000000    -3.718000000    -0.209000000
C    -1.818000000    -3.559000000    -0.580000000
C    -0.926000000    -4.398000000     0.300000000
C     0.425000000    -4.554000000    -0.036000000
H     0.794000000    -4.155000000    -0.977000000
C    -1.335000000    -4.871000000     1.577000000
H    -2.356000000    -4.689000000     1.904000000
O    -1.544000000    -3.872000000    -1.940000000
H    -1.677000000    -2.488000000    -0.369000000
C    -4.332000000    -1.782000000    -1.132000000
C    -4.225000000    -2.437000000    -2.453000000
H    -5.034000000    -2.059000000    -3.082000000
H    -4.366000000    -3.520000000    -2.482000000
C    -2.856000000    -2.206000000    -3.121000000
C    -2.822000000    -1.212000000    -4.123000000
H    -3.660000000    -0.538000000    -4.285000000
C    -1.699000000    -2.950000000    -2.947000000
C    -0.540000000    -2.657000000    -3.619000000
H     0.351000000    -3.249000000    -3.427000000
C    -0.522000000    -1.564000000    -4.456000000
O     0.676000000    -1.178000000    -4.924000000
C     1.297000000    -0.202000000    -4.088000000
C     2.794000000    -0.622000000    -3.844000000
C     3.226000000    -1.911000000    -3.878000000
H     2.521000000    -2.672000000    -4.203000000
C     3.610000000     0.324000000    -3.270000000
H     3.234000000     1.341000000    -3.341000000
O     1.194000000     0.991000000    -4.757000000
H     0.723000000    -0.179000000    -3.149000000
C    -1.682000000    -0.847000000    -4.743000000
C    -1.636000000     0.577000000    -5.407000000
H    -2.679000000     0.745000000    -5.683000000
H    -1.102000000     0.621000000    -6.359000000
C    -1.129000000     1.726000000    -4.590000000
C     0.261000000     1.882000000    -4.367000000
C     0.685000000     2.905000000    -3.551000000
H     1.731000000     3.196000000    -3.498000000
C    -0.225000000     3.736000000    -2.907000000
O     0.153000000     4.764000000    -2.062000000
C     0.169000000     4.432000000    -0.612000000
H     0.105000000     3.338000000    -0.511000000
C     1.480000000     4.848000000    -0.044000000
C     1.705000000     4.597000000     1.312000000
H     0.906000000     4.220000000     1.945000000
C     2.635000000     5.204000000    -0.845000000
H     2.424000000     5.350000000    -1.902000000
C     3.912000000     5.472000000    -0.300000000
O     4.882000000     5.671000000    -1.175000000
C     4.110000000     5.259000000     1.015000000
H     5.144000000     5.329000000     1.345000000
C     3.074000000     4.727000000     1.817000000
O     3.382000000     4.383000000     3.139000000
C     2.306000000     4.392000000     4.090000000
C     2.050000000     3.247000000     4.805000000
H     2.723000000     2.410000000     4.641000000
C     1.383000000     5.425000000     4.284000000
H     1.666000000     6.414000000     3.932000000
C     0.259000000     5.305000000     5.125000000
H    -0.387000000     6.148000000     5.356000000
C    -0.056000000     4.118000000     5.696000000
H    -0.942000000     3.974000000     6.310000000
C     0.838000000     3.076000000     5.573000000
O     0.518000000     1.867000000     6.188000000
C    -0.478000000     1.005000000     5.761000000
C    -0.703000000    -0.133000000     6.438000000
H    -0.126000000    -0.364000000     7.330000000
C    -1.552000000    -1.144000000     6.003000000
O    -1.535000000    -2.359000000     6.583000000
C    -1.984000000    -3.448000000     5.943000000
C    -1.140000000    -4.249000000     5.175000000
H    -0.110000000    -3.966000000     4.974000000
C    -3.145000000    -4.000000000     6.333000000
H    -3.877000000    -3.436000000     6.905000000
C    -3.489000000    -5.300000000     5.982000000
H    -4.359000000    -5.718000000     6.482000000
C    -2.713000000    -6.043000000     5.094000000
H    -3.046000000    -6.986000000     4.667000000
C    -1.540000000    -5.468000000     4.651000000
O    -0.822000000    -6.097000000     3.625000000
C    -0.429000000    -5.453000000     2.474000000
C     0.819000000    -5.696000000     2.104000000
H     1.572000000    -6.214000000     2.692000000
C     1.271000000    -5.212000000     0.891000000
O     2.621000000    -5.532000000     0.557000000
C     3.077000000    -5.663000000    -0.657000000
C     3.712000000    -4.582000000    -1.219000000
H     3.791000000    -3.641000000    -0.682000000
C     2.916000000    -6.870000000    -1.305000000
H     2.448000000    -7.709000000    -0.796000000
C     3.327000000    -6.983000000    -2.630000000
H     3.210000000    -7.898000000    -3.205000000
C     3.934000000    -5.875000000    -3.284000000
H     4.374000000    -5.971000000    -4.273000000
C     4.109000000    -4.646000000    -2.588000000
O     4.786000000    -3.668000000    -3.233000000
C     4.448000000    -2.293000000    -3.322000000
C     5.207000000    -1.291000000    -2.690000000
H     6.143000000    -1.593000000    -2.226000000
C     4.840000000     0.046000000    -2.708000000
O     5.621000000     1.006000000    -2.075000000
C     5.588000000     2.288000000    -2.532000000
C     5.583000000     2.556000000    -3.900000000
H     5.806000000     1.784000000    -4.632000000
C     5.256000000     3.858000000    -4.323000000
H     5.218000000     4.078000000    -5.386000000
C     5.091000000     4.864000000    -3.409000000
H     4.849000000     5.870000000    -3.740000000
C     5.139000000     4.584000000    -2.029000000
C     5.292000000     3.273000000    -1.608000000
H     5.329000000     3.031000000    -0.549000000
C     0.625000000    -0.548000000     1.901000000
H     0.328000000    -1.215000000     2.706000000
C    -0.218000000    -0.384000000     0.831000000
H    -1.127000000    -0.972000000     0.738000000
C     0.211000000     0.455000000    -0.254000000
H    -0.459000000     0.491000000    -1.094000000
C     1.400000000     1.130000000    -0.229000000
H     1.709000000     1.807000000    -1.021000000
C     2.255000000     0.995000000     0.891000000
H     3.197000000     1.535000000     0.843000000
C     1.819000000     0.172000000     1.967000000
C     2.756000000    -0.135000000     3.130000000
O     3.841000000     0.349000000     3.147000000
O     2.488000000    -1.108000000     3.832000000
O     2.540000000    -2.185000000     9.217000000
H     2.373000000    -1.814000000     8.350000000
H     3.493000000    -2.265000000     9.264000000
O     4.931000000    -1.508000000     5.118000000
H     5.559000000    -1.571000000     4.399000000
H     4.083000000    -1.402000000     4.687000000
O     2.587000000    -4.389000000     6.735000000
H     2.263000000    -4.283000000     5.840000000
H     3.179000000    -3.649000000     6.864000000
O     4.731000000     1.496000000     5.461000000
H     5.661000000     1.390000000     5.265000000
H     4.287000000     0.917000000     4.840000000
O     4.880000000    -6.128000000     4.276000000
H     4.937000000    -5.362000000     3.706000000
H     5.553000000    -6.723000000     3.947000000
O     5.701000000     2.207000000     2.362000000
H     5.153000000     1.488000000     2.676000000
H     5.349000000     2.984000000     2.795000000
O     7.786000000    -1.099000000     7.811000000
H     8.143000000    -0.511000000     8.476000000
H     7.451000000    -0.516000000     7.130000000
O     8.416000000     1.491000000     1.469000000
H     7.510000000     1.388000000     1.760000000
H     8.897000000     0.810000000     1.938000000
O     7.782000000     1.245000000     5.434000000
H     8.587000000     1.460000000     4.963000000
H     7.508000000     2.073000000     5.829000000
O     5.693000000    -0.941000000     1.669000000
H     6.319000000    -0.798000000     2.379000000
H     4.908000000    -0.466000000     1.943000000
O     5.499000000    -3.905000000     1.896000000
H     6.078000000    -4.399000000     1.316000000
H     5.479000000    -3.024000000     1.521000000
O     2.759000000    -0.772000000     6.839000000
H     2.377000000    -0.561000000     5.987000000
H     3.693000000    -0.884000000     6.662000000
O     7.464000000    -0.773000000     3.773000000
H     8.072000000    -1.445000000     4.082000000
H     7.568000000    -0.052000000     4.393000000
O     0.670000000     3.547000000     8.804000000
H     1.448000000     3.780000000     9.310000000
H     0.962000000     3.565000000     7.893000000
O     7.744000000    -1.788000000    -0.449000000
H     7.473000000    -2.692000000    -0.292000000
H     7.374000000    -1.296000000     0.284000000
O     5.064000000     0.116000000     8.422000000
H     5.904000000     0.383000000     8.049000000
H     4.457000000     0.812000000     8.170000000
O     2.095000000    -3.621000000     3.880000000
H     2.976000000    -3.859000000     3.593000000
H     2.087000000    -2.664000000     3.861000000
O     3.701000000     2.615000000     7.774000000
H     3.863000000     2.246000000     6.906000000
H     3.585000000     3.552000000     7.619000000
O     6.113000000     5.511000000     3.905000000
H     6.298000000     6.355000000     3.494000000
H     5.177000000     5.540000000     4.101000000
