215
-1447.54813
C    -1.895000000     0.031000000     4.871000000
H    -2.710000000    -0.683000000     4.788000000
C    -1.820000000     1.305000000     4.313000000
C    -0.813000000     2.216000000     4.683000000
H    -0.732000000     3.027000000     3.964000000
C    -2.691000000     1.634000000     3.098000000
O    -3.977000000     0.971000000     3.092000000
H    -2.166000000     1.233000000     2.218000000
O    -2.950000000     3.031000000     2.855000000
C    -2.625000000     3.454000000     1.546000000
C    -1.336000000     3.927000000     1.217000000
H    -0.558000000     4.151000000     1.942000000
C    -1.020000000     4.111000000    -0.131000000
O     0.357000000     4.510000000    -0.361000000
C    -2.026000000     4.167000000    -1.103000000
C    -1.788000000     4.661000000    -2.505000000
H    -2.744000000     4.934000000    -2.957000000
C    -1.122000000     3.524000000    -3.319000000
C    -1.852000000     2.594000000    -3.922000000
H    -2.933000000     2.603000000    -3.804000000
H    -1.118000000     5.523000000    -2.462000000
C    -3.296000000     3.707000000    -0.767000000
H    -4.109000000     3.752000000    -1.487000000
C    -3.589000000     3.270000000     0.549000000
C    -4.945000000     2.634000000     0.832000000
H    -5.637000000     2.957000000     0.052000000
H    -5.339000000     2.888000000     1.819000000
C    -4.854000000     1.128000000     0.767000000
C    -5.137000000     0.369000000    -0.393000000
H    -5.377000000     0.927000000    -1.295000000
C    -4.404000000     0.410000000     1.916000000
C    -4.250000000    -0.980000000     1.793000000
H    -3.869000000    -1.656000000     2.555000000
C    -4.522000000    -1.638000000     0.685000000
O    -4.235000000    -2.995000000     0.656000000
C    -2.989000000    -3.419000000     0.068000000
C    -2.186000000    -4.443000000     0.884000000
C    -0.954000000    -5.033000000     0.367000000
H    -0.658000000    -4.801000000    -0.652000000
C    -2.571000000    -4.736000000     2.194000000
H    -3.509000000    -4.321000000     2.553000000
O    -3.198000000    -3.803000000    -1.301000000
H    -2.248000000    -2.606000000     0.090000000
C    -5.012000000    -0.991000000    -0.390000000
C    -5.228000000    -1.707000000    -1.707000000
H    -6.017000000    -1.187000000    -2.255000000
H    -5.567000000    -2.736000000    -1.578000000
C    -3.921000000    -1.847000000    -2.481000000
C    -3.581000000    -0.810000000    -3.403000000
H    -4.231000000     0.042000000    -3.585000000
C    -3.008000000    -2.848000000    -2.229000000
C    -1.753000000    -2.871000000    -2.822000000
H    -1.106000000    -3.726000000    -2.642000000
C    -1.387000000    -1.812000000    -3.678000000
O    -0.141000000    -1.839000000    -4.219000000
C     0.751000000    -0.728000000    -3.864000000
C     2.175000000    -1.314000000    -3.608000000
C     2.428000000    -2.592000000    -3.161000000
H     1.633000000    -3.274000000    -2.871000000
C     3.300000000    -0.526000000    -3.913000000
H     3.159000000     0.501000000    -4.241000000
O     0.840000000     0.225000000    -4.968000000
H     0.530000000    -0.155000000    -2.951000000
C    -2.336000000    -0.804000000    -3.984000000
C    -2.130000000     0.329000000    -5.026000000
H    -3.093000000     0.456000000    -5.525000000
H    -1.497000000     0.044000000    -5.870000000
C    -1.234000000     1.527000000    -4.555000000
C     0.185000000     1.410000000    -4.578000000
C     0.974000000     2.402000000    -3.957000000
H     2.052000000     2.356000000    -4.093000000
C     0.272000000     3.393000000    -3.293000000
O     1.076000000     4.162000000    -2.524000000
C     1.187000000     3.685000000    -1.186000000
H     0.811000000     2.660000000    -1.056000000
C     2.599000000     3.805000000    -0.632000000
C     2.853000000     3.785000000     0.721000000
H     2.015000000     3.748000000     1.412000000
C     3.693000000     3.787000000    -1.515000000
H     3.501000000     3.637000000    -2.574000000
C     5.020000000     3.859000000    -1.026000000
O     6.057000000     3.736000000    -1.876000000
C     5.251000000     3.936000000     0.309000000
H     6.269000000     3.993000000     0.685000000
C     4.121000000     3.876000000     1.209000000
O     4.324000000     4.056000000     2.588000000
C     3.252000000     4.285000000     3.449000000
C     2.763000000     3.232000000     4.253000000
H     3.111000000     2.209000000     4.141000000
C     2.662000000     5.546000000     3.417000000
H     3.050000000     6.291000000     2.727000000
C     1.649000000     5.835000000     4.318000000
H     1.292000000     6.844000000     4.508000000
C     1.094000000     4.804000000     5.120000000
H     0.325000000     5.052000000     5.848000000
C     1.638000000     3.536000000     5.092000000
O     1.191000000     2.563000000     5.867000000
C     0.168000000     1.785000000     5.591000000
C     0.074000000     0.550000000     6.158000000
H     0.825000000     0.156000000     6.837000000
C    -0.894000000    -0.340000000     5.781000000
O    -0.910000000    -1.500000000     6.493000000
C    -1.784000000    -2.571000000     6.307000000
C    -1.557000000    -3.447000000     5.267000000
H    -0.635000000    -3.329000000     4.704000000
C    -2.841000000    -2.781000000     7.196000000
H    -3.052000000    -2.017000000     7.941000000
C    -3.649000000    -3.913000000     7.172000000
H    -4.459000000    -3.994000000     7.891000000
C    -3.372000000    -4.823000000     6.151000000
H    -4.006000000    -5.698000000     6.030000000
C    -2.339000000    -4.630000000     5.195000000
O    -2.115000000    -5.654000000     4.270000000
C    -1.775000000    -5.569000000     3.008000000
C    -0.596000000    -6.098000000     2.535000000
H     0.017000000    -6.611000000     3.271000000
C    -0.125000000    -5.771000000     1.256000000
O     1.191000000    -6.071000000     0.933000000
C     1.873000000    -6.177000000    -0.260000000
C     2.656000000    -5.083000000    -0.737000000
H     2.772000000    -4.189000000    -0.130000000
C     1.630000000    -7.289000000    -1.108000000
H     1.057000000    -8.116000000    -0.698000000
C     2.086000000    -7.350000000    -2.408000000
H     1.949000000    -8.269000000    -2.972000000
C     2.921000000    -6.362000000    -2.874000000
H     3.245000000    -6.239000000    -3.904000000
C     3.210000000    -5.290000000    -2.023000000
O     4.053000000    -4.347000000    -2.571000000
C     3.736000000    -3.082000000    -2.992000000
C     4.734000000    -2.262000000    -3.374000000
H     5.743000000    -2.609000000    -3.166000000
C     4.598000000    -1.016000000    -3.888000000
O     5.764000000    -0.366000000    -4.111000000
C     5.898000000     1.003000000    -4.212000000
C     6.397000000     1.531000000    -5.393000000
H     6.449000000     0.903000000    -6.279000000
C     6.583000000     2.885000000    -5.430000000
H     6.807000000     3.426000000    -6.346000000
C     6.460000000     3.603000000    -4.264000000
H     6.611000000     4.675000000    -4.361000000
C     5.988000000     3.023000000    -3.080000000
C     5.695000000     1.704000000    -3.085000000
H     5.404000000     1.277000000    -2.128000000
C     0.824000000    -0.890000000     2.550000000
H     0.585000000    -1.175000000     3.572000000
C    -0.135000000    -1.003000000     1.500000000
H    -1.126000000    -1.380000000     1.742000000
C     0.229000000    -0.655000000     0.213000000
H    -0.530000000    -0.800000000    -0.582000000
C     1.497000000    -0.095000000     0.014000000
H     1.789000000     0.325000000    -0.945000000
C     2.456000000    -0.088000000     1.054000000
H     3.471000000     0.189000000     0.782000000
C     2.115000000    -0.584000000     2.330000000
C     3.163000000    -0.638000000     3.433000000
O     4.361000000    -0.385000000     3.153000000
O     2.910000000    -1.144000000     4.511000000
O     3.629000000    -0.159000000     7.237000000
H     3.565000000    -0.531000000     6.357000000
H     3.868000000     0.756000000     7.093000000
O     6.593000000    -4.408000000    -0.844000000
H     7.116000000    -4.155000000    -0.084000000
H     5.713000000    -4.084000000    -0.648000000
O     5.667000000     1.903000000     4.111000000
H     5.645000000     2.474000000     3.343000000
H     5.488000000     1.029000000     3.765000000
O     3.887000000    -6.385000000     4.381000000
H     4.146000000    -7.305000000     4.330000000
H     4.433000000    -5.946000000     3.729000000
O     6.378000000    -0.696000000     1.606000000
H     5.619000000    -0.662000000     2.189000000
H     7.117000000    -0.446000000     2.160000000
O     1.377000000    -5.811000000     5.191000000
H     2.101000000    -5.983000000     4.588000000
H     1.469000000    -4.886000000     5.418000000
O     5.354000000    -3.026000000     6.919000000
H     5.238000000    -2.549000000     6.097000000
H     4.969000000    -2.454000000     7.583000000
O     8.527000000    -0.641000000    -0.450000000
H     8.687000000     0.249000000    -0.764000000
H     7.948000000    -0.528000000     0.304000000
O     8.304000000    -0.548000000     3.710000000
H     9.059000000    -1.138000000     3.716000000
H     8.686000000     0.328000000     3.661000000
O     6.316000000    -1.569000000     4.863000000
H     7.014000000    -0.991000000     4.554000000
H     5.525000000    -1.238000000     4.438000000
O     4.758000000    -2.871000000     0.847000000
H     3.950000000    -2.803000000     1.356000000
H     5.140000000    -1.994000000     0.886000000
O     7.953000000    -3.789000000     4.371000000
H     8.812000000    -3.495000000     4.674000000
H     7.341000000    -3.138000000     4.715000000
O     3.873000000    -5.429000000     7.191000000
H     4.401000000    -4.632000000     7.167000000
H     3.591000000    -5.557000000     6.285000000
O     7.865000000    -3.162000000     1.524000000
H     7.972000000    -3.691000000     2.315000000
H     7.202000000    -2.512000000     1.759000000
O     7.624000000     1.405000000     7.168000000
H     8.259000000     1.912000000     6.662000000
H     6.772000000     1.731000000     6.879000000
O     5.994000000    -0.514000000     8.873000000
H     5.239000000    -0.194000000     8.379000000
H     6.684000000     0.125000000     8.697000000
O     8.435000000    -1.085000000     6.870000000
H     8.153000000    -0.189000000     7.055000000
H     7.800000000    -1.408000000     6.231000000
O     2.054000000    -3.305000000     5.689000000
H     2.281000000    -2.495000000     5.232000000
H     1.720000000    -3.015000000     6.538000000
O     4.867000000     2.481000000     6.638000000
H     5.007000000     3.423000000     6.736000000
H     5.121000000     2.294000000     5.734000000
