215
-1475.83934
C     0.722000000     2.269000000    -4.594000000
H     0.613000000     1.306000000    -5.088000000
C     1.597000000     2.474000000    -3.506000000
C     1.661000000     3.736000000    -2.844000000
H     2.223000000     3.844000000    -1.920000000
C     2.492000000     1.394000000    -3.055000000
O     2.857000000     0.439000000    -4.043000000
H     1.968000000     0.948000000    -2.197000000
O     3.800000000     1.876000000    -2.531000000
C     4.251000000     1.311000000    -1.393000000
C     4.223000000     2.094000000    -0.221000000
H     3.914000000     3.121000000    -0.396000000
C     4.472000000     1.546000000     1.075000000
O     4.104000000     2.335000000     2.176000000
C     4.834000000     0.202000000     1.209000000
C     4.985000000    -0.463000000     2.561000000
H     5.765000000    -1.226000000     2.563000000
C     3.725000000    -1.036000000     3.134000000
C     3.360000000    -2.317000000     2.752000000
H     4.114000000    -2.922000000     2.255000000
H     5.486000000     0.195000000     3.274000000
C     4.957000000    -0.578000000     0.008000000
H     5.363000000    -1.575000000     0.153000000
C     4.719000000    -0.011000000    -1.284000000
C     4.920000000    -0.902000000    -2.563000000
H     5.715000000    -1.636000000    -2.412000000
H     5.282000000    -0.324000000    -3.415000000
C     3.580000000    -1.535000000    -2.878000000
C     3.290000000    -2.810000000    -2.389000000
H     3.994000000    -3.410000000    -1.818000000
C     2.662000000    -0.876000000    -3.667000000
C     1.465000000    -1.462000000    -3.997000000
H     0.800000000    -0.841000000    -4.592000000
C     1.099000000    -2.675000000    -3.417000000
O    -0.170000000    -3.059000000    -3.723000000
C    -1.201000000    -3.086000000    -2.722000000
C    -2.616000000    -2.775000000    -3.269000000
C    -3.796000000    -3.274000000    -2.649000000
H    -3.711000000    -3.978000000    -1.825000000
C    -2.731000000    -1.795000000    -4.256000000
H    -1.878000000    -1.240000000    -4.637000000
O    -1.225000000    -4.333000000    -2.059000000
H    -0.986000000    -2.323000000    -1.959000000
C     2.046000000    -3.397000000    -2.664000000
C     1.672000000    -4.825000000    -2.242000000
H     2.601000000    -5.366000000    -2.051000000
H     1.232000000    -5.419000000    -3.046000000
C     0.901000000    -4.663000000    -0.863000000
C     1.615000000    -4.677000000     0.351000000
H     2.684000000    -4.863000000     0.285000000
C    -0.456000000    -4.438000000    -0.884000000
C    -1.073000000    -4.276000000     0.337000000
H    -2.159000000    -4.274000000     0.377000000
C    -0.374000000    -4.211000000     1.542000000
O    -1.085000000    -3.917000000     2.718000000
C    -1.001000000    -2.558000000     3.227000000
C    -2.372000000    -2.024000000     3.686000000
C    -3.509000000    -2.415000000     2.970000000
H    -3.439000000    -3.144000000     2.167000000
C    -2.494000000    -1.088000000     4.651000000
H    -1.562000000    -0.892000000     5.175000000
O     0.031000000    -2.528000000     4.223000000
H    -0.710000000    -1.944000000     2.362000000
C     0.987000000    -4.412000000     1.532000000
C     1.862000000    -4.321000000     2.768000000
H     2.720000000    -4.973000000     2.591000000
H     1.362000000    -4.739000000     3.644000000
C     2.142000000    -2.860000000     3.107000000
C     1.205000000    -2.004000000     3.747000000
C     1.525000000    -0.666000000     4.040000000
H     0.941000000     0.073000000     4.582000000
C     2.786000000    -0.167000000     3.728000000
O     3.111000000     1.136000000     3.987000000
C     2.870000000     1.961000000     2.842000000
H     2.198000000     1.420000000     2.159000000
C     2.098000000     3.196000000     3.238000000
C     2.313000000     4.370000000     2.563000000
H     2.969000000     4.345000000     1.697000000
C     1.088000000     3.073000000     4.236000000
H     0.881000000     2.073000000     4.609000000
C     0.308000000     4.258000000     4.530000000
O    -0.791000000     4.206000000     5.419000000
C     0.516000000     5.433000000     3.807000000
H    -0.089000000     6.309000000     4.024000000
C     1.527000000     5.496000000     2.861000000
O     1.752000000     6.685000000     2.166000000
C     2.108000000     6.698000000     0.819000000
C     1.262000000     6.300000000    -0.305000000
H     0.260000000     5.909000000    -0.142000000
C     3.394000000     7.120000000     0.477000000
H     4.129000000     7.399000000     1.228000000
C     3.889000000     7.126000000    -0.851000000
H     4.899000000     7.483000000    -1.035000000
C     2.988000000     6.860000000    -1.904000000
H     3.350000000     6.973000000    -2.923000000
C     1.786000000     6.299000000    -1.592000000
O     0.831000000     5.946000000    -2.558000000
C     0.803000000     4.724000000    -3.231000000
C    -0.143000000     4.506000000    -4.250000000
H    -0.864000000     5.245000000    -4.591000000
C    -0.156000000     3.333000000    -4.969000000
O    -0.998000000     3.240000000    -6.042000000
C    -1.527000000     2.104000000    -6.535000000
C    -2.654000000     1.516000000    -5.887000000
H    -3.036000000     1.947000000    -4.965000000
C    -1.204000000     1.576000000    -7.802000000
H    -0.581000000     2.230000000    -8.407000000
C    -1.779000000     0.399000000    -8.357000000
H    -1.436000000    -0.070000000    -9.276000000
C    -2.728000000    -0.306000000    -7.530000000
H    -3.134000000    -1.291000000    -7.743000000
C    -3.259000000     0.334000000    -6.390000000
O    -4.243000000    -0.414000000    -5.675000000
C    -4.053000000    -1.404000000    -4.704000000
C    -5.172000000    -1.936000000    -4.152000000
H    -6.139000000    -1.597000000    -4.515000000
C    -5.050000000    -2.750000000    -2.989000000
O    -6.203000000    -3.066000000    -2.262000000
C    -6.153000000    -3.458000000    -0.920000000
C    -6.028000000    -2.551000000     0.121000000
H    -5.905000000    -1.494000000    -0.102000000
C    -6.235000000    -4.856000000    -0.648000000
H    -6.296000000    -5.546000000    -1.486000000
C    -6.268000000    -5.275000000     0.744000000
H    -6.295000000    -6.341000000     0.954000000
C    -6.274000000    -4.321000000     1.767000000
H    -6.194000000    -4.563000000     2.824000000
C    -6.051000000    -2.972000000     1.462000000
O    -5.905000000    -2.034000000     2.479000000
C    -4.798000000    -1.803000000     3.264000000
C    -4.867000000    -0.824000000     4.200000000
H    -5.783000000    -0.288000000     4.435000000
C    -3.698000000    -0.385000000     4.817000000
O    -3.821000000     0.599000000     5.771000000
C    -2.749000000     1.273000000     6.329000000
C    -2.005000000     0.667000000     7.347000000
H    -2.169000000    -0.326000000     7.756000000
C    -0.803000000     1.311000000     7.760000000
H    -0.175000000     0.898000000     8.545000000
C    -0.389000000     2.582000000     7.132000000
H     0.500000000     3.070000000     7.523000000
C    -1.161000000     3.083000000     6.073000000
C    -2.393000000     2.527000000     5.810000000
H    -2.940000000     3.039000000     5.023000000
C    -2.464000000    -0.004000000    -0.854000000
H    -3.490000000    -0.266000000    -1.098000000
C    -1.625000000    -0.901000000    -0.178000000
H    -2.113000000    -1.808000000     0.170000000
C    -0.282000000    -0.693000000     0.030000000
H     0.333000000    -1.461000000     0.550000000
C     0.181000000     0.539000000    -0.246000000
H     1.226000000     0.782000000    -0.074000000
C    -0.615000000     1.452000000    -0.971000000
H    -0.213000000     2.420000000    -1.258000000
C    -1.905000000     1.174000000    -1.273000000
C    -2.761000000     2.170000000    -1.891000000
O    -2.393000000     3.314000000    -1.849000000
O    -3.831000000     1.865000000    -2.426000000
O     2.862000000     4.056000000    -5.911000000
H     2.371000000     3.509000000    -5.297000000
H     3.778000000     3.823000000    -5.760000000
O    -1.582000000     4.337000000     0.441000000
H    -2.000000000     5.198000000     0.485000000
H    -1.857000000     3.981000000    -0.404000000
O    -7.899000000     1.425000000     1.102000000
H    -7.884000000     2.350000000     1.347000000
H    -7.217000000     1.342000000     0.436000000
O    -2.334000000     6.082000000     2.967000000
H    -2.380000000     6.368000000     2.055000000
H    -1.985000000     5.192000000     2.923000000
O    -4.825000000     5.641000000    -6.661000000
H    -4.769000000     4.819000000    -6.173000000
H    -4.179000000     6.212000000    -6.245000000
O    -3.922000000     7.503000000    -4.694000000
H    -3.879000000     8.455000000    -4.603000000
H    -4.858000000     7.305000000    -4.698000000
O    -1.817000000     2.093000000     2.260000000
H    -1.071000000     1.500000000     2.175000000
H    -1.726000000     2.700000000     1.526000000
O    -3.324000000     6.032000000    -2.179000000
H    -2.831000000     5.213000000    -2.229000000
H    -3.599000000     6.201000000    -3.080000000
O    -8.224000000     3.894000000     2.325000000
H    -8.740000000     4.628000000     2.658000000
H    -7.518000000     4.305000000     1.825000000
O    -4.709000000     2.641000000     2.381000000
H    -3.811000000     2.314000000     2.450000000
H    -4.991000000     2.758000000     3.288000000
O    -5.658000000     1.787000000    -0.191000000
H    -5.283000000     1.805000000     0.689000000
H    -4.902000000     1.843000000    -0.776000000
O    -5.948000000     4.921000000     1.589000000
H    -5.621000000     4.851000000     0.692000000
H    -5.547000000     4.183000000     2.049000000
O    -8.414000000     3.287000000    -4.014000000
H    -7.702000000     2.652000000    -4.086000000
H    -8.400000000     3.559000000    -3.096000000
O    -7.799000000     3.500000000    -1.354000000
H    -7.471000000     2.767000000    -0.832000000
H    -7.011000000     3.934000000    -1.680000000
O    -4.503000000     4.078000000    -4.242000000
H    -5.365000000     3.674000000    -4.337000000
H    -4.069000000     3.560000000    -3.564000000
O    -5.825000000     5.524000000    -1.385000000
H    -4.928000000     5.776000000    -1.603000000
H    -6.364000000     6.241000000    -1.719000000
O    -8.788000000    -1.613000000    -1.853000000
H    -9.052000000    -1.687000000    -2.770000000
H    -7.839000000    -1.741000000    -1.866000000
O    -2.584000000     7.207000000     0.186000000
H    -2.877000000     8.101000000     0.361000000
H    -2.891000000     7.024000000    -0.702000000
O    -6.115000000     1.205000000    -3.708000000
H    -6.075000000     0.250000000    -3.671000000
H    -5.311000000     1.496000000    -3.278000000
