215
-1474.45805
C    -2.427000000    -2.319000000     4.360000000
H    -2.965000000    -2.929000000     3.639000000
C    -2.519000000    -0.931000000     4.250000000
C    -1.805000000    -0.111000000     5.135000000
H    -1.794000000     0.964000000     4.977000000
C    -3.299000000    -0.286000000     3.095000000
O    -4.433000000    -1.035000000     2.726000000
H    -2.538000000    -0.257000000     2.301000000
O    -3.714000000     1.040000000     3.327000000
C    -3.457000000     1.989000000     2.379000000
C    -2.324000000     2.798000000     2.552000000
H    -1.778000000     2.680000000     3.485000000
C    -1.926000000     3.555000000     1.437000000
O    -0.736000000     4.243000000     1.643000000
C    -2.788000000     3.719000000     0.333000000
C    -2.495000000     4.777000000    -0.719000000
H    -3.435000000     5.136000000    -1.145000000
C    -1.590000000     4.445000000    -1.860000000
C    -2.118000000     3.788000000    -3.020000000
H    -3.188000000     3.617000000    -3.105000000
H    -2.055000000     5.648000000    -0.228000000
C    -3.892000000     2.937000000     0.174000000
H    -4.595000000     3.017000000    -0.651000000
C    -4.228000000     2.045000000     1.183000000
C    -5.460000000     1.132000000     1.069000000
H    -6.157000000     1.651000000     0.407000000
H    -6.051000000     1.033000000     1.981000000
C    -5.083000000    -0.239000000     0.498000000
C    -4.982000000    -0.338000000    -0.889000000
H    -5.238000000     0.512000000    -1.516000000
C    -4.554000000    -1.208000000     1.313000000
C    -3.967000000    -2.356000000     0.739000000
H    -3.601000000    -3.194000000     1.327000000
C    -3.783000000    -2.386000000    -0.620000000
O    -3.076000000    -3.445000000    -1.129000000
C    -1.756000000    -3.144000000    -1.594000000
C    -0.839000000    -4.261000000    -1.235000000
C     0.418000000    -4.313000000    -1.821000000
H     0.785000000    -3.591000000    -2.545000000
C    -1.036000000    -5.023000000    -0.085000000
H    -1.975000000    -5.016000000     0.463000000
O    -1.904000000    -3.143000000    -3.031000000
H    -1.343000000    -2.207000000    -1.194000000
C    -4.352000000    -1.422000000    -1.463000000
C    -4.287000000    -1.655000000    -2.957000000
H    -5.206000000    -1.291000000    -3.421000000
H    -4.370000000    -2.717000000    -3.198000000
C    -3.050000000    -1.082000000    -3.614000000
C    -3.024000000     0.231000000    -4.066000000
H    -3.940000000     0.814000000    -4.123000000
C    -1.917000000    -1.894000000    -3.655000000
C    -0.700000000    -1.378000000    -4.047000000
H     0.210000000    -1.961000000    -4.167000000
C    -0.639000000    -0.110000000    -4.564000000
O     0.594000000     0.382000000    -4.906000000
C     1.267000000     1.143000000    -3.912000000
C     2.757000000     0.811000000    -3.933000000
C     3.153000000    -0.390000000    -4.462000000
H     2.538000000    -1.035000000    -5.083000000
C     3.771000000     1.686000000    -3.522000000
H     3.419000000     2.696000000    -3.325000000
O     1.070000000     2.454000000    -4.388000000
H     0.886000000     1.012000000    -2.888000000
C    -1.766000000     0.717000000    -4.514000000
C    -1.750000000     2.181000000    -4.979000000
H    -2.763000000     2.495000000    -5.239000000
H    -1.194000000     2.317000000    -5.909000000
C    -1.237000000     3.156000000    -3.927000000
C     0.134000000     3.306000000    -3.741000000
C     0.681000000     3.934000000    -2.585000000
H     1.762000000     3.969000000    -2.483000000
C    -0.240000000     4.392000000    -1.650000000
O     0.416000000     4.706000000    -0.430000000
C     0.366000000     3.835000000     0.767000000
H     0.233000000     2.789000000     0.453000000
C     1.696000000     3.864000000     1.565000000
C     1.709000000     3.364000000     2.868000000
H     0.758000000     3.258000000     3.384000000
C     2.922000000     4.077000000     0.952000000
H     2.924000000     4.389000000    -0.089000000
C     4.098000000     3.779000000     1.688000000
O     5.261000000     3.969000000     1.102000000
C     4.059000000     3.351000000     2.976000000
H     4.946000000     3.194000000     3.584000000
C     2.810000000     3.151000000     3.546000000
O     2.779000000     2.671000000     4.857000000
C     1.700000000     2.664000000     5.743000000
C     1.001000000     1.432000000     5.927000000
H     1.365000000     0.622000000     5.300000000
C     1.352000000     3.720000000     6.566000000
H     1.751000000     4.716000000     6.391000000
C     0.331000000     3.575000000     7.509000000
H     0.187000000     4.450000000     8.139000000
C    -0.324000000     2.400000000     7.681000000
H    -1.108000000     2.265000000     8.422000000
C     0.004000000     1.295000000     6.920000000
O    -0.537000000     0.048000000     7.207000000
C    -1.150000000    -0.712000000     6.215000000
C    -1.047000000    -2.116000000     6.336000000
H    -0.441000000    -2.582000000     7.109000000
C    -1.613000000    -2.940000000     5.339000000
O    -1.650000000    -4.301000000     5.543000000
C    -1.883000000    -5.291000000     4.552000000
C    -0.899000000    -5.416000000     3.507000000
H     0.025000000    -4.859000000     3.632000000
C    -3.014000000    -6.048000000     4.590000000
H    -3.738000000    -5.860000000     5.378000000
C    -3.074000000    -7.133000000     3.699000000
H    -3.877000000    -7.862000000     3.772000000
C    -2.299000000    -7.191000000     2.549000000
H    -2.472000000    -7.953000000     1.794000000
C    -1.154000000    -6.404000000     2.535000000
O    -0.156000000    -6.585000000     1.626000000
C    -0.016000000    -5.839000000     0.475000000
C     1.210000000    -5.846000000    -0.151000000
H     2.035000000    -6.338000000     0.359000000
C     1.401000000    -5.187000000    -1.338000000
O     2.672000000    -5.181000000    -1.871000000
C     2.916000000    -4.674000000    -3.105000000
C     3.853000000    -3.653000000    -3.333000000
H     4.424000000    -3.225000000    -2.513000000
C     2.308000000    -5.330000000    -4.161000000
H     1.580000000    -6.090000000    -3.888000000
C     2.605000000    -4.957000000    -5.453000000
H     2.184000000    -5.472000000    -6.313000000
C     3.526000000    -3.931000000    -5.687000000
H     3.684000000    -3.590000000    -6.708000000
C     4.106000000    -3.237000000    -4.653000000
O     4.841000000    -2.085000000    -4.866000000
C     4.468000000    -0.795000000    -4.386000000
C     5.462000000     0.065000000    -4.069000000
H     6.526000000    -0.125000000    -4.177000000
C     5.107000000     1.291000000    -3.556000000
O     6.140000000     2.198000000    -3.313000000
C     6.068000000     3.269000000    -2.432000000
C     6.406000000     4.515000000    -2.828000000
H     6.717000000     4.716000000    -3.850000000
C     6.362000000     5.620000000    -1.940000000
H     6.579000000     6.588000000    -2.384000000
C     5.942000000     5.485000000    -0.635000000
H     5.874000000     6.397000000    -0.047000000
C     5.589000000     4.186000000    -0.246000000
C     5.711000000     3.057000000    -1.121000000
H     5.421000000     2.082000000    -0.739000000
C     1.133000000    -0.422000000     2.266000000
H     0.698000000    -0.944000000     3.115000000
C     0.228000000    -0.130000000     1.186000000
H    -0.812000000    -0.395000000     1.362000000
C     0.720000000     0.418000000     0.058000000
H     0.094000000     0.593000000    -0.813000000
C     2.090000000     0.811000000    -0.013000000
H     2.497000000     1.375000000    -0.849000000
C     2.950000000     0.506000000     0.980000000
H     4.019000000     0.653000000     0.847000000
C     2.500000000    -0.167000000     2.122000000
C     3.668000000    -0.481000000     3.104000000
O     4.826000000    -0.350000000     2.703000000
O     3.427000000    -0.710000000     4.272000000
O     6.135000000    -2.643000000     3.180000000
H     5.308000000    -3.061000000     2.939000000
H     5.907000000    -1.722000000     3.312000000
O     6.884000000    -4.125000000     5.744000000
H     6.911000000    -3.844000000     6.659000000
H     6.653000000    -3.334000000     5.257000000
O     2.593000000    -0.487000000     9.474000000
H     2.660000000    -0.175000000     8.572000000
H     2.577000000     0.311000000    10.003000000
O     8.978000000     0.040000000     2.102000000
H     8.145000000     0.380000000     1.777000000
H     9.388000000     0.786000000     2.539000000
O     3.742000000    -0.353000000     6.828000000
H     3.664000000    -0.255000000     5.879000000
H     3.591000000    -1.285000000     6.986000000
O     2.559000000    -5.583000000     3.446000000
H     2.485000000    -4.818000000     4.017000000
H     2.228000000    -6.309000000     3.975000000
O     3.590000000    -3.809000000     7.574000000
H     4.529000000    -3.823000000     7.387000000
H     3.502000000    -4.292000000     8.396000000
O     4.352000000    -4.205000000     1.628000000
H     3.780000000    -4.624000000     2.271000000
H     3.755000000    -3.877000000     0.955000000
O     8.405000000    -2.828000000     1.665000000
H     7.563000000    -2.809000000     2.119000000
H     8.731000000    -1.931000000     1.726000000
O     6.414000000    -1.064000000     7.436000000
H     6.813000000    -0.415000000     8.016000000
H     5.472000000    -0.951000000     7.563000000
O     5.319000000     2.110000000     5.842000000
H     5.334000000     1.256000000     6.275000000
H     4.540000000     2.082000000     5.285000000
O     6.592000000     1.066000000     1.338000000
H     6.447000000     2.012000000     1.317000000
H     5.807000000     0.713000000     1.756000000
O     5.833000000    -1.740000000     0.341000000
H     5.708000000    -1.059000000     1.002000000
H     5.513000000    -2.540000000     0.759000000
O     3.163000000    -3.284000000     4.848000000
H     3.325000000    -3.371000000     5.788000000
H     3.076000000    -2.342000000     4.706000000
O     8.229000000     2.147000000     4.650000000
H     7.348000000     2.084000000     5.018000000
H     8.371000000     3.086000000     4.528000000
O     5.170000000    -6.428000000     4.927000000
H     5.963000000    -6.575000000     5.442000000
H     5.218000000    -5.506000000     4.672000000
O     7.365000000    -1.878000000    -1.856000000
H     8.096000000    -1.261000000    -1.866000000
H     6.869000000    -1.649000000    -1.070000000
O     2.868000000    -2.417000000     0.050000000
H     3.139000000    -1.500000000     0.024000000
H     2.020000000    -2.429000000    -0.394000000
O     8.934000000    -1.382000000     5.422000000
H     8.069000000    -1.249000000     5.810000000
H     8.923000000    -0.852000000     4.626000000
