215
-1490.10988
C    -2.631000000    -1.468000000     4.690000000
H    -2.910000000    -2.205000000     3.941000000
C    -2.768000000    -0.091000000     4.491000000
C    -2.323000000     0.820000000     5.389000000
H    -2.363000000     1.896000000     5.240000000
C    -3.183000000     0.321000000     3.092000000
O    -4.044000000    -0.684000000     2.639000000
H    -2.241000000     0.447000000     2.539000000
O    -3.834000000     1.585000000     3.101000000
C    -3.580000000     2.439000000     2.042000000
C    -2.506000000     3.251000000     2.121000000
H    -2.015000000     3.341000000     3.087000000
C    -2.090000000     3.971000000     1.012000000
O    -0.867000000     4.564000000     1.100000000
C    -2.733000000     3.825000000    -0.216000000
C    -2.317000000     4.596000000    -1.453000000
H    -3.214000000     4.852000000    -2.021000000
C    -1.330000000     3.854000000    -2.296000000
C    -1.765000000     3.113000000    -3.387000000
H    -2.816000000     3.054000000    -3.657000000
H    -1.834000000     5.538000000    -1.183000000
C    -3.875000000     2.955000000    -0.321000000
H    -4.307000000     2.694000000    -1.284000000
C    -4.278000000     2.296000000     0.834000000
C    -5.319000000     1.235000000     0.705000000
H    -6.125000000     1.461000000     0.004000000
H    -5.949000000     1.349000000     1.590000000
C    -4.675000000    -0.061000000     0.341000000
C    -4.804000000    -0.540000000    -0.995000000
H    -5.426000000     0.004000000    -1.701000000
C    -4.186000000    -1.007000000     1.291000000
C    -3.708000000    -2.225000000     0.921000000
H    -3.475000000    -2.975000000     1.673000000
C    -3.614000000    -2.523000000    -0.430000000
O    -2.958000000    -3.628000000    -0.848000000
C    -1.687000000    -3.329000000    -1.424000000
C    -0.608000000    -4.279000000    -0.825000000
C     0.425000000    -4.755000000    -1.631000000
H     0.429000000    -4.681000000    -2.715000000
C    -0.681000000    -4.502000000     0.586000000
H    -1.592000000    -4.127000000     1.045000000
O    -1.706000000    -3.577000000    -2.817000000
H    -1.430000000    -2.285000000    -1.190000000
C    -4.155000000    -1.689000000    -1.420000000
C    -4.150000000    -1.913000000    -2.956000000
H    -4.898000000    -1.292000000    -3.454000000
H    -4.408000000    -2.963000000    -3.107000000
C    -2.859000000    -1.537000000    -3.583000000
C    -2.677000000    -0.286000000    -4.215000000
H    -3.507000000     0.413000000    -4.168000000
C    -1.740000000    -2.416000000    -3.612000000
C    -0.497000000    -2.044000000    -4.102000000
H     0.289000000    -2.791000000    -4.022000000
C    -0.383000000    -0.771000000    -4.728000000
O     0.860000000    -0.372000000    -5.254000000
C     1.631000000     0.407000000    -4.328000000
C     3.052000000    -0.059000000    -4.260000000
C     3.466000000    -1.358000000    -4.592000000
H     2.676000000    -2.021000000    -4.933000000
C     4.005000000     0.861000000    -3.805000000
H     3.657000000     1.864000000    -3.571000000
O     1.494000000     1.818000000    -4.627000000
H     1.316000000     0.262000000    -3.284000000
C    -1.494000000     0.103000000    -4.806000000
C    -1.299000000     1.523000000    -5.364000000
H    -2.197000000     1.992000000    -5.769000000
H    -0.589000000     1.413000000    -6.187000000
C    -0.834000000     2.443000000    -4.228000000
C     0.528000000     2.512000000    -3.915000000
C     0.968000000     3.344000000    -2.844000000
H     2.000000000     3.302000000    -2.505000000
C     0.046000000     4.011000000    -2.043000000
O     0.457000000     4.671000000    -0.879000000
C     0.237000000     4.048000000     0.362000000
H    -0.074000000     3.026000000     0.097000000
C     1.452000000     4.002000000     1.292000000
C     1.282000000     3.816000000     2.684000000
H     0.336000000     3.787000000     3.218000000
C     2.661000000     3.855000000     0.710000000
H     2.704000000     4.019000000    -0.364000000
C     3.753000000     3.672000000     1.505000000
O     5.030000000     3.624000000     0.975000000
C     3.613000000     3.532000000     2.907000000
H     4.504000000     3.232000000     3.453000000
C     2.352000000     3.639000000     3.484000000
O     2.313000000     3.243000000     4.823000000
C     1.229000000     3.455000000     5.677000000
C     0.596000000     2.325000000     6.136000000
H     0.991000000     1.399000000     5.726000000
C     0.798000000     4.699000000     6.123000000
H     1.253000000     5.582000000     5.681000000
C    -0.278000000     4.823000000     7.013000000
H    -0.542000000     5.834000000     7.312000000
C    -0.903000000     3.648000000     7.484000000
H    -1.622000000     3.845000000     8.275000000
C    -0.537000000     2.407000000     6.985000000
O    -1.152000000     1.292000000     7.389000000
C    -1.753000000     0.333000000     6.554000000
C    -1.664000000    -0.979000000     6.885000000
H    -1.197000000    -1.278000000     7.819000000
C    -2.093000000    -1.858000000     5.914000000
O    -2.024000000    -3.220000000     6.273000000
C    -1.920000000    -4.105000000     5.265000000
C    -0.801000000    -4.138000000     4.390000000
H     0.045000000    -3.459000000     4.471000000
C    -2.990000000    -4.985000000     5.118000000
H    -3.803000000    -4.893000000     5.834000000
C    -2.941000000    -5.958000000     4.085000000
H    -3.600000000    -6.811000000     3.941000000
C    -1.807000000    -6.017000000     3.225000000
H    -1.732000000    -6.786000000     2.460000000
C    -0.847000000    -5.061000000     3.344000000
O     0.320000000    -5.269000000     2.635000000
C     0.361000000    -5.190000000     1.266000000
C     1.496000000    -5.534000000     0.464000000
H     2.250000000    -6.167000000     0.925000000
C     1.508000000    -5.303000000    -0.931000000
O     2.630000000    -5.833000000    -1.499000000
C     3.057000000    -5.528000000    -2.758000000
C     3.926000000    -4.465000000    -2.998000000
H     4.321000000    -3.842000000    -2.200000000
C     2.595000000    -6.228000000    -3.850000000
H     1.805000000    -6.955000000    -3.679000000
C     2.954000000    -5.861000000    -5.117000000
H     2.465000000    -6.287000000    -5.990000000
C     3.792000000    -4.828000000    -5.402000000
H     4.006000000    -4.657000000    -6.454000000
C     4.326000000    -4.083000000    -4.313000000
O     5.278000000    -3.049000000    -4.460000000
C     4.783000000    -1.772000000    -4.265000000
C     5.633000000    -0.882000000    -3.645000000
H     6.630000000    -1.208000000    -3.358000000
C     5.266000000     0.447000000    -3.561000000
O     6.192000000     1.382000000    -3.016000000
C     5.946000000     2.591000000    -2.368000000
C     5.848000000     3.736000000    -3.147000000
H     5.899000000     3.753000000    -4.233000000
C     5.488000000     4.965000000    -2.487000000
H     5.240000000     5.798000000    -3.139000000
C     5.361000000     4.926000000    -1.075000000
H     5.106000000     5.854000000    -0.570000000
C     5.450000000     3.722000000    -0.359000000
C     5.663000000     2.571000000    -1.020000000
H     5.687000000     1.685000000    -0.390000000
C     0.109000000    -0.498000000     1.821000000
H    -0.468000000    -0.993000000     2.599000000
C    -0.558000000    -0.136000000     0.665000000
H    -1.583000000    -0.352000000     0.372000000
C     0.135000000     0.524000000    -0.380000000
H    -0.254000000     0.677000000    -1.386000000
C     1.466000000     0.815000000    -0.184000000
H     2.055000000     1.242000000    -0.991000000
C     2.104000000     0.511000000     1.020000000
H     3.127000000     0.830000000     1.200000000
C     1.401000000    -0.033000000     2.092000000
C     2.075000000    -0.280000000     3.424000000
O     3.272000000     0.075000000     3.496000000
O     1.511000000    -0.901000000     4.309000000
O     5.113000000    -1.953000000     3.998000000
H     4.300000000    -2.343000000     4.318000000
H     4.876000000    -1.053000000     3.775000000
O     8.267000000    -0.631000000     3.534000000
H     7.659000000    -0.107000000     3.013000000
H     8.041000000    -0.427000000     4.442000000
O     2.536000000    -0.627000000     6.970000000
H     1.923000000    -0.370000000     6.281000000
H     2.481000000    -1.582000000     6.997000000
O     3.343000000    -2.579000000     1.726000000
H     2.963000000    -2.751000000     2.587000000
H     3.968000000    -1.870000000     1.877000000
O     2.162000000    -3.253000000     7.533000000
H     2.670000000    -3.574000000     8.279000000
H     1.305000000    -3.037000000     7.902000000
O     5.163000000     3.323000000     6.945000000
H     6.057000000     3.361000000     6.605000000
H     4.823000000     2.485000000     6.631000000
O     6.181000000    -3.724000000     1.527000000
H     6.881000000    -3.290000000     2.015000000
H     5.740000000    -3.014000000     1.060000000
O     7.642000000    -3.253000000     3.830000000
H     6.689000000    -3.248000000     3.917000000
H     7.868000000    -2.348000000     3.615000000
O     5.978000000    -3.188000000     6.330000000
H     6.844000000    -3.045000000     5.949000000
H     5.367000000    -2.905000000     5.649000000
O     4.584000000     0.768000000     5.766000000
H     4.248000000     0.679000000     4.874000000
H     4.076000000     0.138000000     6.277000000
O     6.019000000     0.172000000     1.854000000
H     6.304000000     1.080000000     1.750000000
H     5.217000000     0.230000000     2.373000000
O     5.404000000    -1.602000000    -0.203000000
H     5.864000000    -0.807000000     0.065000000
H     4.559000000    -1.293000000    -0.528000000
O     2.881000000    -2.949000000     4.993000000
H     2.410000000    -3.175000000     5.795000000
H     2.418000000    -2.185000000     4.651000000
O     7.290000000    -0.192000000     6.006000000
H     7.489000000    -0.219000000     6.942000000
H     6.382000000     0.109000000     5.962000000
O     3.912000000    -5.853000000     6.811000000
H     4.817000000    -5.575000000     6.955000000
H     3.541000000    -5.176000000     6.245000000
O     4.558000000     1.664000000     9.220000000
H     4.585000000     2.196000000     8.424000000
H     5.135000000     2.119000000     9.833000000
O     7.203000000     2.723000000     3.179000000
H     7.101000000     2.721000000     4.131000000
H     7.040000000     3.631000000     2.923000000
O     2.619000000    -1.767000000    -0.869000000
H     2.127000000    -0.947000000    -0.919000000
H     2.565000000    -2.023000000     0.051000000
O     1.653000000     0.972000000     9.359000000
H     1.698000000     0.299000000     8.680000000
H     2.566000000     1.131000000     9.599000000
