215
-1450.36891
C    -3.777000000    -2.771000000     3.144000000
H    -4.414000000    -3.145000000     2.346000000
C    -3.447000000    -1.402000000     3.161000000
C    -2.509000000    -1.001000000     4.179000000
H    -2.212000000     0.034000000     4.330000000
C    -3.875000000    -0.509000000     2.001000000
O    -4.839000000    -1.227000000     1.150000000
H    -2.910000000    -0.296000000     1.518000000
O    -4.395000000     0.750000000     2.570000000
C    -4.056000000     1.834000000     1.790000000
C    -3.101000000     2.630000000     2.391000000
H    -2.668000000     2.361000000     3.351000000
C    -2.532000000     3.639000000     1.650000000
O    -1.441000000     4.288000000     2.187000000
C    -3.095000000     4.016000000     0.446000000
C    -2.460000000     5.117000000    -0.448000000
H    -3.233000000     5.202000000    -1.216000000
C    -1.166000000     4.694000000    -1.108000000
C    -1.320000000     4.057000000    -2.376000000
H    -2.330000000     3.952000000    -2.763000000
H    -2.303000000     6.119000000    -0.044000000
C    -4.145000000     3.245000000    -0.148000000
H    -4.547000000     3.465000000    -1.134000000
C    -4.580000000     2.121000000     0.487000000
C    -5.564000000     1.204000000    -0.280000000
H    -6.144000000     1.775000000    -1.008000000
H    -6.300000000     0.831000000     0.434000000
C    -4.850000000     0.020000000    -0.869000000
C    -4.388000000     0.140000000    -2.149000000
H    -4.559000000     1.052000000    -2.715000000
C    -4.624000000    -1.183000000    -0.204000000
C    -4.059000000    -2.213000000    -0.800000000
H    -3.744000000    -3.042000000    -0.171000000
C    -3.647000000    -2.191000000    -2.102000000
O    -2.799000000    -3.135000000    -2.608000000
C    -1.390000000    -2.792000000    -2.661000000
C    -0.483000000    -3.769000000    -1.883000000
C     0.860000000    -3.857000000    -2.273000000
H     1.345000000    -3.123000000    -2.910000000
C    -1.013000000    -4.687000000    -0.975000000
H    -2.058000000    -4.616000000    -0.684000000
O    -0.971000000    -2.514000000    -4.004000000
H    -1.198000000    -1.838000000    -2.148000000
C    -3.780000000    -0.974000000    -2.763000000
C    -3.357000000    -0.895000000    -4.237000000
H    -4.098000000    -0.278000000    -4.748000000
H    -3.342000000    -1.912000000    -4.633000000
C    -1.987000000    -0.311000000    -4.438000000
C    -1.782000000     1.035000000    -4.577000000
H    -2.637000000     1.696000000    -4.692000000
C    -0.842000000    -1.147000000    -4.262000000
C     0.454000000    -0.651000000    -4.459000000
H     1.299000000    -1.327000000    -4.359000000
C     0.613000000     0.761000000    -4.518000000
O     1.884000000     1.197000000    -4.474000000
C     2.349000000     1.890000000    -3.316000000
C     3.803000000     1.515000000    -3.114000000
C     4.255000000     0.249000000    -3.598000000
H     3.521000000    -0.417000000    -4.044000000
C     4.743000000     2.316000000    -2.524000000
H     4.445000000     3.333000000    -2.283000000
O     2.123000000     3.313000000    -3.286000000
H     1.788000000     1.520000000    -2.446000000
C    -0.550000000     1.613000000    -4.589000000
C    -0.392000000     3.088000000    -4.590000000
H    -1.300000000     3.314000000    -5.153000000
H     0.390000000     3.376000000    -5.295000000
C    -0.215000000     3.701000000    -3.222000000
C     0.997000000     3.832000000    -2.658000000
C     1.197000000     4.305000000    -1.366000000
H     2.201000000     4.377000000    -0.956000000
C     0.113000000     4.745000000    -0.582000000
O     0.322000000     5.031000000     0.761000000
C    -0.080000000     3.997000000     1.650000000
H    -0.154000000     3.045000000     1.103000000
C     1.032000000     3.642000000     2.719000000
C     0.703000000     3.176000000     3.982000000
H    -0.344000000     3.280000000     4.254000000
C     2.337000000     3.364000000     2.261000000
H     2.608000000     3.665000000     1.252000000
C     3.353000000     2.966000000     3.133000000
O     4.708000000     3.034000000     2.785000000
C     3.001000000     2.650000000     4.443000000
H     3.727000000     2.222000000     5.129000000
C     1.661000000     2.720000000     4.851000000
O     1.279000000     2.504000000     6.115000000
C     0.445000000     1.559000000     6.604000000
C     0.121000000     0.437000000     5.872000000
H     0.524000000     0.302000000     4.872000000
C    -0.141000000     1.962000000     7.810000000
H     0.149000000     2.916000000     8.243000000
C    -1.030000000     1.052000000     8.465000000
H    -1.435000000     1.229000000     9.458000000
C    -1.237000000    -0.177000000     7.900000000
H    -1.743000000    -0.962000000     8.456000000
C    -0.678000000    -0.459000000     6.568000000
O    -0.986000000    -1.662000000     5.994000000
C    -2.094000000    -1.896000000     5.188000000
C    -2.452000000    -3.253000000     5.146000000
H    -2.081000000    -4.007000000     5.836000000
C    -3.309000000    -3.652000000     4.108000000
O    -3.608000000    -5.050000000     4.126000000
C    -3.343000000    -5.768000000     3.021000000
C    -2.067000000    -5.673000000     2.450000000
H    -1.269000000    -5.193000000     3.010000000
C    -4.255000000    -6.617000000     2.345000000
H    -5.214000000    -6.737000000     2.843000000
C    -3.898000000    -7.369000000     1.216000000
H    -4.595000000    -8.096000000     0.805000000
C    -2.671000000    -7.246000000     0.612000000
H    -2.409000000    -7.991000000    -0.135000000
C    -1.786000000    -6.373000000     1.232000000
O    -0.523000000    -6.353000000     0.722000000
C    -0.120000000    -5.497000000    -0.316000000
C     1.260000000    -5.527000000    -0.642000000
H     1.930000000    -6.262000000    -0.204000000
C     1.741000000    -4.736000000    -1.657000000
O     3.066000000    -4.720000000    -1.870000000
C     3.651000000    -4.227000000    -2.998000000
C     4.447000000    -3.088000000    -2.809000000
H     4.556000000    -2.690000000    -1.803000000
C     3.588000000    -4.884000000    -4.237000000
H     2.933000000    -5.730000000    -4.428000000
C     4.281000000    -4.332000000    -5.339000000
H     4.221000000    -4.907000000    -6.259000000
C     5.077000000    -3.224000000    -5.115000000
H     5.680000000    -2.844000000    -5.937000000
C     5.182000000    -2.589000000    -3.851000000
O     5.962000000    -1.441000000    -3.727000000
C     5.543000000    -0.222000000    -3.394000000
C     6.438000000     0.611000000    -2.728000000
H     7.416000000     0.227000000    -2.450000000
C     5.984000000     1.839000000    -2.209000000
O     6.920000000     2.648000000    -1.495000000
C     6.426000000     3.456000000    -0.440000000
C     6.204000000     4.818000000    -0.677000000
H     6.490000000     5.264000000    -1.626000000
C     5.592000000     5.652000000     0.217000000
H     5.298000000     6.664000000    -0.048000000
C     5.112000000     5.017000000     1.371000000
H     4.639000000     5.699000000     2.073000000
C     5.207000000     3.660000000     1.647000000
C     5.907000000     2.855000000     0.711000000
H     5.872000000     1.769000000     0.736000000
C     0.620000000    -2.201000000     1.059000000
H     0.516000000    -3.186000000     1.506000000
C    -0.504000000    -1.485000000     0.607000000
H    -1.533000000    -1.833000000     0.630000000
C    -0.339000000    -0.248000000     0.005000000
H    -1.235000000     0.225000000    -0.296000000
C     0.884000000     0.324000000    -0.111000000
H     1.053000000     1.330000000    -0.485000000
C     2.007000000    -0.430000000     0.249000000
H     2.985000000    -0.051000000    -0.035000000
C     1.873000000    -1.676000000     0.858000000
C     3.037000000    -2.506000000     1.258000000
O     4.189000000    -2.378000000     0.722000000
O     2.933000000    -3.285000000     2.201000000
O     6.755000000    -4.154000000     2.602000000
H     6.260000000    -4.333000000     1.803000000
H     7.175000000    -4.988000000     2.816000000
O     6.990000000    -7.073000000     0.407000000
H     7.297000000    -6.370000000    -0.165000000
H     6.360000000    -7.559000000    -0.126000000
O     9.113000000    -1.491000000    -0.261000000
H     9.087000000    -0.791000000     0.391000000
H     8.194000000    -1.699000000    -0.427000000
O     3.563000000    -0.050000000     6.473000000
H     3.332000000    -0.388000000     5.608000000
H     2.875000000     0.586000000     6.672000000
O    -0.238000000    -6.434000000     5.831000000
H     0.203000000    -5.589000000     5.919000000
H     0.007000000    -6.742000000     4.959000000
O     2.784000000    -0.784000000     3.934000000
H     3.438000000    -0.977000000     3.263000000
H     2.237000000    -0.101000000     3.546000000
O     6.970000000     0.611000000     3.803000000
H     6.402000000    -0.078000000     3.459000000
H     7.835000000     0.204000000     3.857000000
O     6.563000000    -2.192000000    -0.603000000
H     5.727000000    -2.098000000    -0.145000000
H     6.385000000    -1.884000000    -1.491000000
O     0.801000000    -3.884000000     5.784000000
H     1.012000000    -4.128000000     4.882000000
H     0.161000000    -3.177000000     5.696000000
O     3.454000000    -2.761000000     8.152000000
H     3.083000000    -1.971000000     8.546000000
H     3.536000000    -2.550000000     7.222000000
O     4.442000000    -3.670000000     4.632000000
H     3.753000000    -3.760000000     3.974000000
H     4.602000000    -2.728000000     4.684000000
O     4.479000000    -6.450000000     4.784000000
H     4.556000000    -5.502000000     4.678000000
H     3.625000000    -6.577000000     5.196000000
O     7.010000000    -4.698000000     5.761000000
H     6.413000000    -4.490000000     5.042000000
H     6.441000000    -5.031000000     6.455000000
O     4.585000000    -5.220000000     0.764000000
H     4.399000000    -5.520000000    -0.126000000
H     4.182000000    -4.353000000     0.813000000
O     1.693000000    -5.267000000     3.201000000
H     1.752000000    -6.022000000     2.614000000
H     2.299000000    -4.627000000     2.829000000
O     7.710000000    -4.965000000    -1.018000000
H     8.523000000    -4.785000000    -0.545000000
H     7.156000000    -4.205000000    -0.840000000
O     5.734000000    -1.527000000     2.845000000
H     6.390000000    -2.218000000     2.749000000
H     5.128000000    -1.669000000     2.117000000
O     6.898000000    -2.145000000     6.217000000
H     6.787000000    -1.788000000     5.335000000
H     7.153000000    -3.057000000     6.076000000
O     5.459000000    -8.058000000     2.543000000
H     5.601000000    -7.413000000     1.851000000
H     5.079000000    -7.557000000     3.264000000
