215
-1463.05652
C    -2.435000000    -2.923000000     3.463000000
H    -2.685000000    -3.364000000     2.501000000
C    -2.762000000    -1.561000000     3.683000000
C    -2.320000000    -0.959000000     4.865000000
H    -2.561000000     0.095000000     4.975000000
C    -3.518000000    -0.798000000     2.534000000
O    -4.514000000    -1.564000000     1.855000000
H    -2.659000000    -0.609000000     1.874000000
O    -4.086000000     0.474000000     3.007000000
C    -3.825000000     1.617000000     2.249000000
C    -2.769000000     2.429000000     2.699000000
H    -2.353000000     2.212000000     3.679000000
C    -2.420000000     3.494000000     1.927000000
O    -1.283000000     4.103000000     2.409000000
C    -3.132000000     3.753000000     0.752000000
C    -2.781000000     4.922000000    -0.142000000
H    -3.670000000     5.296000000    -0.654000000
C    -1.583000000     4.537000000    -1.074000000
C    -1.912000000     3.941000000    -2.306000000
H    -2.954000000     3.845000000    -2.598000000
H    -2.524000000     5.766000000     0.503000000
C    -4.193000000     2.971000000     0.344000000
H    -4.720000000     3.147000000    -0.591000000
C    -4.572000000     1.845000000     1.088000000
C    -5.624000000     0.887000000     0.505000000
H    -6.347000000     1.423000000    -0.113000000
H    -6.276000000     0.516000000     1.299000000
C    -5.096000000    -0.373000000    -0.185000000
C    -4.824000000    -0.255000000    -1.543000000
H    -5.213000000     0.656000000    -1.990000000
C    -4.558000000    -1.430000000     0.528000000
C    -3.838000000    -2.428000000    -0.177000000
H    -3.398000000    -3.282000000     0.332000000
C    -3.645000000    -2.306000000    -1.535000000
O    -2.859000000    -3.137000000    -2.274000000
C    -1.463000000    -2.834000000    -2.567000000
C    -0.563000000    -3.946000000    -2.126000000
C     0.807000000    -3.924000000    -2.377000000
H     1.265000000    -3.063000000    -2.858000000
C    -1.054000000    -4.998000000    -1.383000000
H    -2.120000000    -5.078000000    -1.190000000
O    -1.338000000    -2.577000000    -4.027000000
H    -1.277000000    -1.963000000    -1.922000000
C    -4.103000000    -1.215000000    -2.226000000
C    -3.824000000    -1.074000000    -3.756000000
H    -4.615000000    -0.491000000    -4.233000000
H    -3.941000000    -2.069000000    -4.190000000
C    -2.498000000    -0.417000000    -4.098000000
C    -2.345000000     0.959000000    -4.168000000
H    -3.207000000     1.544000000    -3.857000000
C    -1.353000000    -1.235000000    -4.347000000
C    -0.140000000    -0.618000000    -4.633000000
H     0.720000000    -1.206000000    -4.944000000
C    -0.035000000     0.762000000    -4.773000000
O     1.198000000     1.176000000    -4.794000000
C     1.632000000     1.652000000    -3.486000000
C     3.132000000     1.336000000    -3.334000000
C     3.647000000     0.114000000    -3.788000000
H     3.032000000    -0.493000000    -4.448000000
C     4.020000000     2.184000000    -2.678000000
H     3.656000000     3.123000000    -2.269000000
O     1.475000000     3.095000000    -3.507000000
H     1.021000000     1.150000000    -2.722000000
C    -1.141000000     1.565000000    -4.474000000
C    -1.200000000     3.070000000    -4.580000000
H    -2.167000000     3.375000000    -4.985000000
H    -0.411000000     3.343000000    -5.285000000
C    -0.868000000     3.597000000    -3.190000000
C     0.457000000     3.608000000    -2.706000000
C     0.790000000     4.184000000    -1.507000000
H     1.834000000     4.325000000    -1.240000000
C    -0.237000000     4.552000000    -0.680000000
O     0.165000000     4.894000000     0.596000000
C    -0.143000000     3.851000000     1.615000000
H    -0.292000000     2.980000000     0.959000000
C     1.123000000     3.590000000     2.511000000
C     1.187000000     2.733000000     3.609000000
H     0.322000000     2.157000000     3.929000000
C     2.337000000     4.099000000     2.096000000
H     2.371000000     4.626000000     1.146000000
C     3.536000000     3.770000000     2.721000000
O     4.756000000     4.224000000     2.328000000
C     3.599000000     2.939000000     3.818000000
H     4.512000000     2.824000000     4.397000000
C     2.363000000     2.426000000     4.276000000
O     2.321000000     1.480000000     5.308000000
C     1.359000000     1.261000000     6.238000000
C     0.663000000     0.091000000     6.168000000
H     0.951000000    -0.619000000     5.397000000
C     1.086000000     2.296000000     7.157000000
H     1.656000000     3.220000000     7.107000000
C     0.104000000     1.991000000     8.140000000
H    -0.070000000     2.747000000     8.902000000
C    -0.507000000     0.724000000     8.174000000
H    -1.233000000     0.489000000     8.947000000
C    -0.385000000    -0.131000000     7.059000000
O    -1.254000000    -1.170000000     6.983000000
C    -1.622000000    -1.712000000     5.797000000
C    -1.168000000    -2.994000000     5.532000000
H    -0.479000000    -3.571000000     6.144000000
C    -1.619000000    -3.621000000     4.367000000
O    -1.442000000    -5.017000000     4.166000000
C    -1.934000000    -5.823000000     3.172000000
C    -1.124000000    -5.956000000     2.094000000
H    -0.172000000    -5.432000000     2.090000000
C    -3.182000000    -6.424000000     3.183000000
H    -3.815000000    -6.308000000     4.058000000
C    -3.540000000    -7.280000000     2.128000000
H    -4.480000000    -7.824000000     2.157000000
C    -2.705000000    -7.457000000     1.068000000
H    -3.011000000    -8.086000000     0.236000000
C    -1.502000000    -6.777000000     1.048000000
O    -0.672000000    -7.001000000    -0.058000000
C    -0.183000000    -6.038000000    -0.885000000
C     1.175000000    -5.946000000    -1.162000000
H     1.924000000    -6.588000000    -0.706000000
C     1.637000000    -4.908000000    -1.860000000
O     2.946000000    -4.906000000    -2.182000000
C     3.539000000    -4.307000000    -3.275000000
C     4.293000000    -3.128000000    -3.157000000
H     4.461000000    -2.658000000    -2.191000000
C     3.376000000    -4.822000000    -4.544000000
H     2.772000000    -5.715000000    -4.678000000
C     3.818000000    -4.205000000    -5.690000000
H     3.647000000    -4.713000000    -6.636000000
C     4.605000000    -3.077000000    -5.555000000
H     4.915000000    -2.552000000    -6.455000000
C     4.785000000    -2.470000000    -4.313000000
O     5.471000000    -1.309000000    -4.243000000
C     4.990000000    -0.129000000    -3.655000000
C     5.840000000     0.788000000    -3.102000000
H     6.903000000     0.561000000    -3.107000000
C     5.352000000     1.930000000    -2.569000000
O     6.245000000     2.871000000    -2.039000000
C     5.846000000     3.778000000    -1.113000000
C     5.855000000     5.156000000    -1.495000000
H     6.035000000     5.363000000    -2.547000000
C     5.450000000     6.193000000    -0.661000000
H     5.478000000     7.204000000    -1.059000000
C     5.012000000     5.833000000     0.576000000
H     4.761000000     6.632000000     1.269000000
C     5.019000000     4.491000000     1.040000000
C     5.511000000     3.493000000     0.183000000
H     5.516000000     2.461000000     0.522000000
C     0.781000000    -1.818000000     1.048000000
H     0.669000000    -2.796000000     1.509000000
C    -0.379000000    -1.341000000     0.488000000
H    -1.357000000    -1.810000000     0.563000000
C    -0.448000000    -0.009000000     0.000000000
H    -1.358000000     0.315000000    -0.405000000
C     0.739000000     0.741000000     0.068000000
H     0.768000000     1.715000000    -0.414000000
C     1.913000000     0.221000000     0.693000000
H     2.774000000     0.882000000     0.760000000
C     1.934000000    -1.053000000     1.167000000
C     3.259000000    -1.691000000     1.638000000
O     4.330000000    -1.036000000     1.644000000
O     3.233000000    -2.847000000     1.992000000
O     4.838000000    -6.934000000    -2.551000000
H     4.514000000    -6.057000000    -2.344000000
H     4.050000000    -7.442000000    -2.741000000
O     4.328000000     0.362000000     7.248000000
H     3.545000000     0.731000000     6.839000000
H     4.611000000     1.033000000     7.870000000
O     0.713000000    -6.794000000     5.383000000
H     0.465000000    -6.221000000     4.658000000
H     0.442000000    -6.319000000     6.169000000
O     2.030000000    -4.900000000     3.725000000
H     2.292000000    -4.079000000     3.308000000
H     2.347000000    -5.581000000     3.132000000
O     6.364000000     0.543000000     5.080000000
H     5.707000000     0.660000000     5.767000000
H     6.228000000    -0.351000000     4.768000000
O     6.377000000    -2.178000000    -0.431000000
H     5.677000000    -1.881000000     0.150000000
H     6.999000000    -1.450000000    -0.448000000
O     3.350000000    -5.552000000     6.287000000
H     3.972000000    -4.877000000     6.015000000
H     2.703000000    -5.579000000     5.582000000
O     2.724000000    -2.228000000     8.137000000
H     2.658000000    -2.622000000     7.267000000
H     3.408000000    -1.564000000     8.047000000
O     5.446000000    -1.729000000     3.901000000
H     4.905000000    -1.543000000     3.133000000
H     5.958000000    -2.498000000     3.652000000
O     6.315000000     0.557000000     2.251000000
H     6.019000000     0.913000000     3.089000000
H     5.647000000    -0.087000000     2.015000000
O     7.485000000     0.520000000    -0.325000000
H     7.066000000     0.767000000     0.500000000
H     7.290000000     1.245000000    -0.919000000
O     3.423000000    -2.928000000     5.371000000
H     2.968000000    -3.142000000     4.557000000
H     3.967000000    -2.172000000     5.151000000
O     5.461000000    -5.621000000     3.824000000
H     5.837000000    -4.964000000     3.238000000
H     4.576000000    -5.762000000     3.488000000
O     8.181000000    -3.994000000    -1.851000000
H     9.116000000    -3.830000000    -1.729000000
H     7.766000000    -3.147000000    -1.691000000
O     2.899000000    -7.028000000     2.172000000
H     2.671000000    -7.760000000     1.599000000
H     3.646000000    -6.611000000     1.743000000
O     6.842000000    -5.554000000    -0.196000000
H     7.512000000    -5.995000000     0.327000000
H     7.334000000    -4.976000000    -0.779000000
O     4.320000000    -5.027000000     1.132000000
H     5.076000000    -4.929000000     0.553000000
H     4.003000000    -4.134000000     1.266000000
O     7.071000000    -3.851000000     2.404000000
H     7.128000000    -3.588000000     1.486000000
H     7.924000000    -4.239000000     2.596000000
O     8.609000000    -1.019000000     3.194000000
H     7.712000000    -1.062000000     2.863000000
H     8.878000000    -0.114000000     3.038000000
