215
-1456.02969
C    -3.703000000    -2.743000000     3.403000000
H    -4.172000000    -3.144000000     2.509000000
C    -3.379000000    -1.410000000     3.507000000
C    -2.652000000    -0.908000000     4.557000000
H    -2.322000000     0.126000000     4.614000000
C    -3.832000000    -0.451000000     2.368000000
O    -4.839000000    -1.020000000     1.543000000
H    -2.969000000    -0.447000000     1.686000000
O    -4.193000000     0.846000000     2.816000000
C    -3.714000000     1.950000000     2.099000000
C    -2.626000000     2.657000000     2.639000000
H    -2.168000000     2.213000000     3.519000000
C    -2.018000000     3.658000000     1.962000000
O    -0.845000000     4.186000000     2.401000000
C    -2.583000000     4.095000000     0.750000000
C    -2.050000000     5.198000000    -0.133000000
H    -2.795000000     5.727000000    -0.730000000
C    -0.942000000     4.708000000    -1.065000000
C    -1.245000000     4.342000000    -2.375000000
H    -2.267000000     4.327000000    -2.744000000
H    -1.646000000     6.035000000     0.441000000
C    -3.662000000     3.390000000     0.180000000
H    -3.963000000     3.624000000    -0.838000000
C    -4.213000000     2.296000000     0.863000000
C    -5.373000000     1.483000000     0.233000000
H    -5.827000000     2.046000000    -0.585000000
H    -6.165000000     1.303000000     0.963000000
C    -4.902000000     0.260000000    -0.460000000
C    -4.648000000     0.422000000    -1.902000000
H    -4.670000000     1.364000000    -2.444000000
C    -4.607000000    -0.916000000     0.246000000
C    -4.073000000    -1.931000000    -0.411000000
H    -3.815000000    -2.828000000     0.147000000
C    -3.726000000    -1.838000000    -1.764000000
O    -3.053000000    -2.933000000    -2.225000000
C    -1.675000000    -2.705000000    -2.512000000
C    -0.769000000    -3.838000000    -2.014000000
C     0.517000000    -4.029000000    -2.547000000
H     0.730000000    -3.495000000    -3.469000000
C    -1.155000000    -4.642000000    -0.900000000
H    -2.174000000    -4.504000000    -0.547000000
O    -1.489000000    -2.336000000    -3.943000000
H    -1.498000000    -1.757000000    -1.982000000
C    -4.133000000    -0.744000000    -2.531000000
C    -3.804000000    -0.653000000    -3.999000000
H    -4.558000000     0.033000000    -4.390000000
H    -4.045000000    -1.605000000    -4.477000000
C    -2.422000000    -0.131000000    -4.334000000
C    -2.214000000     1.250000000    -4.445000000
H    -3.095000000     1.875000000    -4.320000000
C    -1.310000000    -0.985000000    -4.257000000
C    -0.028000000    -0.503000000    -4.352000000
H     0.781000000    -1.197000000    -4.140000000
C     0.181000000     0.835000000    -4.510000000
O     1.501000000     1.194000000    -4.545000000
C     2.019000000     1.649000000    -3.323000000
C     3.460000000     1.087000000    -3.130000000
C     3.845000000    -0.125000000    -3.693000000
H     3.191000000    -0.708000000    -4.336000000
C     4.310000000     1.765000000    -2.241000000
H     3.987000000     2.657000000    -1.710000000
O     2.039000000     3.090000000    -3.400000000
H     1.451000000     1.218000000    -2.486000000
C    -0.912000000     1.771000000    -4.534000000
C    -0.738000000     3.320000000    -4.547000000
H    -1.663000000     3.736000000    -4.953000000
H     0.089000000     3.617000000    -5.195000000
C    -0.291000000     3.831000000    -3.189000000
C     1.016000000     3.629000000    -2.652000000
C     1.337000000     4.134000000    -1.423000000
H     2.337000000     4.139000000    -0.998000000
C     0.340000000     4.679000000    -0.615000000
O     0.634000000     4.931000000     0.703000000
C     0.357000000     3.889000000     1.646000000
H     0.059000000     2.977000000     1.109000000
C     1.508000000     3.520000000     2.606000000
C     1.289000000     2.578000000     3.605000000
H     0.310000000     2.112000000     3.689000000
C     2.830000000     3.953000000     2.430000000
H     3.125000000     4.582000000     1.594000000
C     3.901000000     3.459000000     3.184000000
O     5.189000000     3.834000000     2.852000000
C     3.657000000     2.600000000     4.212000000
H     4.488000000     2.238000000     4.811000000
C     2.334000000     2.073000000     4.363000000
O     2.174000000     0.938000000     5.146000000
C     1.125000000     0.796000000     6.027000000
C     0.199000000    -0.273000000     5.913000000
H     0.282000000    -0.903000000     5.031000000
C     1.026000000     1.649000000     7.149000000
H     1.638000000     2.537000000     7.287000000
C     0.014000000     1.424000000     8.061000000
H    -0.080000000     2.178000000     8.837000000
C    -0.888000000     0.403000000     7.929000000
H    -1.708000000     0.304000000     8.636000000
C    -0.835000000    -0.461000000     6.862000000
O    -1.768000000    -1.403000000     6.715000000
C    -2.232000000    -1.843000000     5.511000000
C    -2.678000000    -3.137000000     5.532000000
H    -2.342000000    -3.887000000     6.243000000
C    -3.327000000    -3.599000000     4.408000000
O    -3.661000000    -4.952000000     4.201000000
C    -3.355000000    -5.644000000     3.053000000
C    -2.074000000    -5.616000000     2.509000000
H    -1.297000000    -5.034000000     2.998000000
C    -4.325000000    -6.323000000     2.457000000
H    -5.380000000    -6.226000000     2.702000000
C    -4.107000000    -6.962000000     1.216000000
H    -4.958000000    -7.334000000     0.652000000
C    -2.797000000    -7.069000000     0.744000000
H    -2.674000000    -7.662000000    -0.159000000
C    -1.813000000    -6.319000000     1.354000000
O    -0.544000000    -6.281000000     0.840000000
C    -0.227000000    -5.567000000    -0.278000000
C     1.023000000    -5.729000000    -0.906000000
H     1.662000000    -6.484000000    -0.456000000
C     1.347000000    -5.052000000    -2.082000000
O     2.621000000    -5.293000000    -2.563000000
C     3.153000000    -4.610000000    -3.637000000
C     3.894000000    -3.461000000    -3.361000000
H     4.035000000    -3.152000000    -2.329000000
C     3.027000000    -5.025000000    -4.925000000
H     2.443000000    -5.919000000    -5.129000000
C     3.634000000    -4.299000000    -5.927000000
H     3.568000000    -4.673000000    -6.945000000
C     4.524000000    -3.206000000    -5.680000000
H     4.955000000    -2.672000000    -6.523000000
C     4.683000000    -2.822000000    -4.360000000
O     5.487000000    -1.730000000    -4.175000000
C     5.146000000    -0.541000000    -3.568000000
C     6.015000000     0.193000000    -2.803000000
H     7.013000000    -0.199000000    -2.622000000
C     5.608000000     1.355000000    -2.168000000
O     6.501000000     1.962000000    -1.327000000
C     6.228000000     3.080000000    -0.547000000
C     6.571000000     4.307000000    -1.020000000
H     6.841000000     4.364000000    -2.072000000
C     6.286000000     5.468000000    -0.181000000
H     6.540000000     6.485000000    -0.472000000
C     5.836000000     5.239000000     1.102000000
H     5.717000000     6.085000000     1.774000000
C     5.623000000     3.965000000     1.535000000
C     5.814000000     2.858000000     0.762000000
H     5.649000000     1.855000000     1.148000000
C     0.594000000    -1.403000000     1.390000000
H     0.118000000    -2.352000000     1.623000000
C    -0.091000000    -0.479000000     0.623000000
H    -1.041000000    -0.825000000     0.223000000
C     0.546000000     0.682000000     0.151000000
H     0.026000000     1.365000000    -0.599000000
C     1.855000000     0.971000000     0.545000000
H     2.358000000     1.897000000     0.280000000
C     2.603000000    -0.035000000     1.226000000
H     3.655000000     0.152000000     1.424000000
C     1.935000000    -1.191000000     1.662000000
C     2.675000000    -2.266000000     2.361000000
O     3.830000000    -1.956000000     2.645000000
O     2.178000000    -3.365000000     2.556000000
O     7.872000000    -3.610000000     2.661000000
H     8.137000000    -3.957000000     3.513000000
H     8.407000000    -2.824000000     2.546000000
O     3.989000000    -0.764000000     7.768000000
H     3.855000000    -0.574000000     6.840000000
H     4.940000000    -0.780000000     7.875000000
O     0.750000000    -8.010000000     3.694000000
H     1.444000000    -8.182000000     4.331000000
H     1.108000000    -7.325000000     3.130000000
O     4.820000000    -0.187000000     4.983000000
H     4.085000000    -0.128000000     4.373000000
H     5.577000000    -0.378000000     4.427000000
O     7.158000000     0.998000000     6.052000000
H     6.416000000     0.730000000     5.509000000
H     7.216000000     1.945000000     5.926000000
O     4.913000000    -3.100000000     0.389000000
H     4.194000000    -3.340000000    -0.194000000
H     4.488000000    -2.888000000     1.220000000
O     1.436000000    -4.331000000     5.020000000
H     2.057000000    -5.017000000     4.774000000
H     1.328000000    -3.809000000     4.225000000
O     2.213000000    -2.710000000     8.443000000
H     2.730000000    -1.961000000     8.144000000
H     2.674000000    -3.473000000     8.095000000
O     6.001000000    -6.121000000     4.548000000
H     5.907000000    -5.188000000     4.739000000
H     5.118000000    -6.476000000     4.647000000
O     5.215000000    -3.453000000     4.516000000
H     5.727000000    -2.659000000     4.669000000
H     4.609000000    -3.216000000     3.814000000
O     7.962000000     1.739000000     2.978000000
H     7.487000000     2.336000000     3.555000000
H     7.398000000     0.968000000     2.915000000
O     3.715000000    -4.669000000     6.461000000
H     4.101000000    -4.240000000     5.697000000
H     2.773000000    -4.533000000     6.361000000
O     3.102000000    -9.533000000     1.123000000
H     3.370000000    -8.758000000     1.618000000
H     2.981000000    -9.215000000     0.228000000
O     2.359000000    -7.366000000     5.742000000
H     2.321000000    -6.654000000     6.381000000
H     2.373000000    -8.163000000     6.271000000
O     5.108000000    -6.409000000     1.706000000
H     5.529000000    -6.202000000     2.540000000
H     5.254000000    -5.634000000     1.164000000
O     2.194000000    -6.262000000     2.279000000
H     3.110000000    -6.276000000     2.002000000
H     1.984000000    -5.332000000     2.368000000
O     7.192000000    -2.585000000    -1.265000000
H     8.008000000    -2.645000000    -0.768000000
H     6.504000000    -2.721000000    -0.614000000
O     6.233000000    -0.769000000     2.631000000
H     6.921000000    -1.128000000     2.072000000
H     5.461000000    -1.297000000     2.430000000
O    -0.072000000    -4.296000000     7.308000000
H     0.176000000    -3.562000000     7.870000000
H     0.368000000    -4.120000000     6.476000000
