215
-1456.56852
C    -3.412000000    -2.071000000     3.436000000
H    -3.536000000    -2.575000000     2.481000000
C    -3.464000000    -0.666000000     3.445000000
C    -3.067000000    -0.050000000     4.645000000
H    -3.076000000     1.037000000     4.673000000
C    -3.832000000     0.184000000     2.167000000
O    -4.841000000    -0.526000000     1.376000000
H    -2.883000000     0.120000000     1.615000000
O    -4.229000000     1.509000000     2.468000000
C    -3.625000000     2.536000000     1.747000000
C    -2.444000000     3.049000000     2.282000000
H    -2.104000000     2.662000000     3.239000000
C    -1.783000000     4.027000000     1.528000000
O    -0.575000000     4.473000000     2.002000000
C    -2.234000000     4.360000000     0.243000000
C    -1.416000000     5.261000000    -0.671000000
H    -2.172000000     5.807000000    -1.238000000
C    -0.348000000     4.532000000    -1.452000000
C    -0.651000000     4.137000000    -2.772000000
H    -1.594000000     4.332000000    -3.276000000
H    -0.946000000     6.066000000    -0.101000000
C    -3.297000000     3.655000000    -0.320000000
H    -3.550000000     3.921000000    -1.343000000
C    -3.973000000     2.775000000     0.446000000
C    -5.136000000     1.989000000    -0.178000000
H    -5.648000000     2.566000000    -0.952000000
H    -5.912000000     1.734000000     0.546000000
C    -4.738000000     0.650000000    -0.807000000
C    -4.549000000     0.551000000    -2.182000000
H    -4.628000000     1.491000000    -2.721000000
C    -4.589000000    -0.494000000     0.021000000
C    -4.336000000    -1.701000000    -0.618000000
H    -4.343000000    -2.654000000    -0.096000000
C    -4.021000000    -1.667000000    -1.993000000
O    -3.419000000    -2.819000000    -2.401000000
C    -2.000000000    -2.790000000    -2.679000000
C    -1.258000000    -3.957000000    -2.013000000
C     0.063000000    -4.245000000    -2.449000000
H     0.451000000    -3.760000000    -3.341000000
C    -1.803000000    -4.612000000    -0.904000000
H    -2.823000000    -4.395000000    -0.596000000
O    -1.659000000    -2.586000000    -4.085000000
H    -1.561000000    -1.954000000    -2.115000000
C    -4.087000000    -0.539000000    -2.835000000
C    -3.722000000    -0.555000000    -4.289000000
H    -4.329000000     0.254000000    -4.702000000
H    -3.972000000    -1.507000000    -4.761000000
C    -2.224000000    -0.280000000    -4.492000000
C    -1.808000000     1.044000000    -4.632000000
H    -2.584000000     1.801000000    -4.548000000
C    -1.267000000    -1.353000000    -4.470000000
C     0.078000000    -1.025000000    -4.577000000
H     0.873000000    -1.766000000    -4.591000000
C     0.456000000     0.304000000    -4.724000000
O     1.791000000     0.506000000    -4.690000000
C     2.385000000     0.984000000    -3.472000000
C     3.774000000     0.246000000    -3.101000000
C     4.097000000    -1.073000000    -3.412000000
H     3.269000000    -1.644000000    -3.825000000
C     4.809000000     0.999000000    -2.393000000
H     4.479000000     1.982000000    -2.067000000
O     2.530000000     2.435000000    -3.492000000
H     1.688000000     0.796000000    -2.642000000
C    -0.465000000     1.389000000    -4.690000000
C     0.038000000     2.806000000    -4.823000000
H    -0.630000000     3.379000000    -5.470000000
H     0.989000000     2.875000000    -5.355000000
C     0.282000000     3.420000000    -3.507000000
C     1.543000000     3.222000000    -2.872000000
C     1.835000000     3.701000000    -1.587000000
H     2.823000000     3.551000000    -1.161000000
C     0.899000000     4.316000000    -0.857000000
O     1.309000000     4.662000000     0.490000000
C     0.632000000     3.806000000     1.471000000
H     0.419000000     2.789000000     1.110000000
C     1.707000000     3.440000000     2.543000000
C     1.356000000     3.000000000     3.837000000
H     0.310000000     2.984000000     4.131000000
C     3.049000000     3.496000000     2.257000000
H     3.423000000     3.851000000     1.300000000
C     4.032000000     3.053000000     3.168000000
O     5.347000000     3.051000000     2.856000000
C     3.603000000     2.365000000     4.337000000
H     4.354000000     1.836000000     4.918000000
C     2.249000000     2.363000000     4.652000000
O     1.903000000     1.601000000     5.783000000
C     0.632000000     1.732000000     6.363000000
C    -0.295000000     0.685000000     6.323000000
H    -0.051000000    -0.154000000     5.677000000
C     0.508000000     2.772000000     7.261000000
H     1.296000000     3.500000000     7.438000000
C    -0.597000000     2.877000000     8.071000000
H    -0.717000000     3.654000000     8.821000000
C    -1.518000000     1.802000000     8.119000000
H    -2.339000000     1.838000000     8.832000000
C    -1.454000000     0.746000000     7.167000000
O    -2.532000000    -0.131000000     7.024000000
C    -2.841000000    -0.737000000     5.836000000
C    -3.034000000    -2.142000000     5.809000000
H    -2.981000000    -2.704000000     6.738000000
C    -3.233000000    -2.738000000     4.637000000
O    -3.406000000    -4.109000000     4.551000000
C    -3.610000000    -4.885000000     3.401000000
C    -2.479000000    -5.208000000     2.668000000
H    -1.508000000    -4.912000000     3.057000000
C    -4.880000000    -5.124000000     2.921000000
H    -5.719000000    -4.748000000     3.500000000
C    -5.083000000    -5.801000000     1.784000000
H    -6.114000000    -6.067000000     1.570000000
C    -3.950000000    -6.254000000     1.049000000
H    -4.050000000    -7.037000000     0.302000000
C    -2.652000000    -5.947000000     1.482000000
O    -1.629000000    -6.350000000     0.734000000
C    -1.065000000    -5.613000000    -0.240000000
C     0.217000000    -5.938000000    -0.779000000
H     0.839000000    -6.723000000    -0.356000000
C     0.824000000    -5.220000000    -1.784000000
O     2.069000000    -5.650000000    -2.229000000
C     2.760000000    -5.090000000    -3.302000000
C     3.710000000    -4.185000000    -2.927000000
H     3.788000000    -3.749000000    -1.934000000
C     2.671000000    -5.670000000    -4.559000000
H     1.900000000    -6.423000000    -4.698000000
C     3.606000000    -5.338000000    -5.524000000
H     3.636000000    -5.864000000    -6.475000000
C     4.535000000    -4.323000000    -5.209000000
H     5.192000000    -3.970000000    -5.999000000
C     4.635000000    -3.814000000    -3.918000000
O     5.612000000    -2.910000000    -3.693000000
C     5.319000000    -1.623000000    -3.173000000
C     6.365000000    -0.839000000    -2.598000000
H     7.269000000    -1.353000000    -2.281000000
C     6.057000000     0.461000000    -2.175000000
O     7.019000000     1.077000000    -1.343000000
C     6.713000000     2.230000000    -0.519000000
C     6.888000000     3.550000000    -0.990000000
H     7.238000000     3.684000000    -2.010000000
C     6.796000000     4.664000000    -0.113000000
H     7.106000000     5.653000000    -0.440000000
C     6.290000000     4.467000000     1.142000000
H     6.113000000     5.321000000     1.791000000
C     5.876000000     3.180000000     1.560000000
C     6.140000000     2.016000000     0.793000000
H     5.802000000     1.008000000     1.021000000
C     0.165000000    -2.322000000     0.644000000
H    -0.229000000    -3.258000000     1.032000000
C    -0.831000000    -1.385000000     0.213000000
H    -1.871000000    -1.663000000     0.365000000
C    -0.434000000    -0.114000000    -0.094000000
H    -1.153000000     0.548000000    -0.567000000
C     0.967000000     0.253000000    -0.218000000
H     1.247000000     1.248000000    -0.555000000
C     1.909000000    -0.703000000     0.145000000
H     2.953000000    -0.399000000     0.162000000
C     1.516000000    -1.920000000     0.706000000
C     2.569000000    -2.863000000     1.145000000
O     3.758000000    -2.475000000     1.211000000
O     2.242000000    -3.971000000     1.558000000
O     1.353000000    -0.207000000     3.320000000
H     0.909000000    -0.127000000     2.476000000
H     1.313000000     0.673000000     3.695000000
O     4.969000000    -4.988000000     0.285000000
H     4.300000000    -4.342000000     0.512000000
H     4.642000000    -5.810000000     0.651000000
O     5.079000000    -7.448000000    -2.321000000
H     4.494000000    -7.498000000    -1.565000000
H     5.553000000    -6.624000000    -2.203000000
O     0.300000000    -4.137000000     6.302000000
H     0.489000000    -3.605000000     5.529000000
H     0.911000000    -4.872000000     6.243000000
O     4.422000000    -4.057000000     3.393000000
H     4.059000000    -3.615000000     4.160000000
H     3.923000000    -3.706000000     2.655000000
O     1.028000000    -3.197000000     3.915000000
H     1.240000000    -3.798000000     3.201000000
H     1.176000000    -2.326000000     3.546000000
O     5.520000000    -0.704000000     4.463000000
H     5.879000000    -1.085000000     3.661000000
H     4.956000000    -1.389000000     4.821000000
O     7.122000000    -3.535000000    -0.349000000
H     6.491000000    -4.228000000    -0.152000000
H     7.660000000    -3.894000000    -1.055000000
O     1.534000000    -6.646000000     6.132000000
H     2.254000000    -6.887000000     5.550000000
H     1.512000000    -7.342000000     6.789000000
O     3.808000000    -2.892000000     5.994000000
H     4.344000000    -3.565000000     6.414000000
H     3.244000000    -2.564000000     6.694000000
O     8.748000000     0.017000000     2.512000000
H     8.383000000     0.902000000     2.487000000
H     7.993000000    -0.557000000     2.382000000
O     4.925000000    -8.304000000     2.610000000
H     5.637000000    -8.403000000     1.977000000
H     4.248000000    -7.821000000     2.135000000
O     3.943000000    -6.582000000     4.325000000
H     4.312000000    -7.293000000     3.801000000
H     4.220000000    -5.784000000     3.876000000
O     2.888000000    -6.697000000     1.458000000
H     2.038000000    -7.135000000     1.500000000
H     2.684000000    -5.808000000     1.168000000
O     9.566000000    -1.982000000    -0.345000000
H     8.766000000    -2.315000000     0.059000000
H     9.645000000    -2.473000000    -1.163000000
O     6.149000000    -1.507000000     1.690000000
H     6.361000000    -2.055000000     0.934000000
H     5.193000000    -1.465000000     1.694000000
O     6.808000000    -6.945000000     0.861000000
H     7.675000000    -7.089000000     1.240000000
H     6.538000000    -6.090000000     1.197000000
O     1.661000000    -8.835000000     3.808000000
H     1.759000000    -7.980000000     4.227000000
H     1.285000000    -9.393000000     4.489000000
O     7.012000000    -4.455000000     2.943000000
H     6.088000000    -4.309000000     3.145000000
H     7.238000000    -3.751000000     2.335000000
