215
-1420.49834
C    -3.238000000    -3.444000000     2.432000000
H    -3.651000000    -3.665000000     1.451000000
C    -3.167000000    -2.089000000     2.837000000
C    -2.662000000    -1.866000000     4.131000000
H    -2.518000000    -0.859000000     4.513000000
C    -3.768000000    -0.919000000     2.056000000
O    -4.820000000    -1.395000000     1.213000000
H    -2.950000000    -0.512000000     1.444000000
O    -4.269000000     0.207000000     2.854000000
C    -3.909000000     1.483000000     2.465000000
C    -2.706000000     1.972000000     3.116000000
H    -2.309000000     1.531000000     4.028000000
C    -2.078000000     3.101000000     2.541000000
O    -0.873000000     3.528000000     3.125000000
C    -2.602000000     3.643000000     1.356000000
C    -2.076000000     4.868000000     0.823000000
H    -2.933000000     5.318000000     0.317000000
C    -0.901000000     4.674000000    -0.084000000
C    -1.157000000     4.523000000    -1.430000000
H    -2.162000000     4.609000000    -1.836000000
H    -1.642000000     5.614000000     1.491000000
C    -3.713000000     3.054000000     0.665000000
H    -4.113000000     3.489000000    -0.248000000
C    -4.387000000     1.962000000     1.242000000
C    -5.596000000     1.388000000     0.480000000
H    -6.055000000     2.226000000    -0.049000000
H    -6.280000000     0.919000000     1.189000000
C    -5.021000000     0.341000000    -0.503000000
C    -4.650000000     0.741000000    -1.786000000
H    -4.746000000     1.781000000    -2.084000000
C    -4.754000000    -0.985000000    -0.110000000
C    -4.182000000    -1.874000000    -1.010000000
H    -3.891000000    -2.873000000    -0.693000000
C    -3.884000000    -1.466000000    -2.284000000
O    -3.160000000    -2.253000000    -3.086000000
C    -1.693000000    -1.948000000    -3.252000000
C    -0.877000000    -3.227000000    -3.083000000
C     0.291000000    -3.403000000    -3.842000000
H     0.500000000    -2.773000000    -4.703000000
C    -1.123000000    -4.139000000    -2.041000000
H    -2.025000000    -4.018000000    -1.447000000
O    -1.437000000    -1.335000000    -4.546000000
H    -1.370000000    -1.149000000    -2.568000000
C    -4.098000000    -0.154000000    -2.700000000
C    -3.775000000     0.330000000    -4.075000000
H    -4.451000000     1.158000000    -4.301000000
H    -3.798000000    -0.528000000    -4.749000000
C    -2.302000000     0.841000000    -4.129000000
C    -2.016000000     2.178000000    -4.000000000
H    -2.865000000     2.837000000    -3.840000000
C    -1.218000000     0.007000000    -4.500000000
C     0.158000000     0.494000000    -4.535000000
H     0.925000000    -0.228000000    -4.801000000
C     0.378000000     1.809000000    -4.272000000
O     1.703000000     2.121000000    -4.167000000
C     2.213000000     2.258000000    -2.778000000
C     3.471000000     1.567000000    -2.515000000
C     3.775000000     0.326000000    -3.192000000
H     3.174000000    -0.046000000    -4.019000000
C     4.409000000     1.958000000    -1.491000000
H     4.167000000     2.836000000    -0.898000000
O     2.285000000     3.673000000    -2.467000000
H     1.507000000     1.755000000    -2.101000000
C    -0.708000000     2.697000000    -4.052000000
C    -0.300000000     4.123000000    -3.783000000
H    -1.096000000     4.819000000    -4.057000000
H     0.593000000     4.517000000    -4.273000000
C    -0.043000000     4.236000000    -2.250000000
C     1.250000000     4.172000000    -1.743000000
C     1.382000000     4.215000000    -0.365000000
H     2.390000000     4.115000000     0.031000000
C     0.424000000     4.620000000     0.466000000
O     0.625000000     4.582000000     1.737000000
C     0.403000000     3.403000000     2.506000000
H     0.251000000     2.531000000     1.852000000
C     1.510000000     3.096000000     3.497000000
C     1.250000000     2.070000000     4.393000000
H     0.227000000     1.706000000     4.460000000
C     2.823000000     3.527000000     3.336000000
H     3.105000000     4.120000000     2.470000000
C     3.852000000     3.077000000     4.183000000
O     5.145000000     3.398000000     3.947000000
C     3.571000000     2.071000000     5.098000000
H     4.384000000     1.681000000     5.706000000
C     2.255000000     1.558000000     5.223000000
O     1.963000000     0.433000000     5.971000000
C     0.731000000     0.018000000     6.394000000
C     0.033000000    -1.106000000     5.911000000
H     0.505000000    -1.781000000     5.203000000
C     0.120000000     0.882000000     7.299000000
H     0.714000000     1.740000000     7.604000000
C    -1.139000000     0.636000000     7.827000000
H    -1.601000000     1.328000000     8.526000000
C    -1.782000000    -0.527000000     7.448000000
H    -2.788000000    -0.723000000     7.810000000
C    -1.202000000    -1.383000000     6.516000000
O    -1.804000000    -2.600000000     6.193000000
C    -2.264000000    -2.922000000     4.920000000
C    -2.513000000    -4.235000000     4.564000000
H    -2.278000000    -5.016000000     5.282000000
C    -2.959000000    -4.521000000     3.309000000
O    -3.081000000    -5.810000000     3.010000000
C    -3.010000000    -6.207000000     1.730000000
C    -1.736000000    -6.245000000     1.126000000
H    -0.880000000    -6.003000000     1.750000000
C    -4.086000000    -6.474000000     0.987000000
H    -5.061000000    -6.245000000     1.409000000
C    -3.874000000    -6.767000000    -0.376000000
H    -4.735000000    -6.926000000    -1.021000000
C    -2.636000000    -6.775000000    -0.980000000
H    -2.613000000    -7.060000000    -2.029000000
C    -1.543000000    -6.429000000    -0.227000000
O    -0.348000000    -6.133000000    -0.809000000
C    -0.357000000    -5.288000000    -1.911000000
C     0.706000000    -5.573000000    -2.733000000
H     1.387000000    -6.403000000    -2.567000000
C     1.069000000    -4.601000000    -3.680000000
O     2.155000000    -4.901000000    -4.506000000
C     3.107000000    -3.962000000    -4.915000000
C     3.701000000    -3.074000000    -4.063000000
H     3.397000000    -2.997000000    -3.022000000
C     3.426000000    -3.891000000    -6.267000000
H     3.078000000    -4.722000000    -6.875000000
C     4.493000000    -3.159000000    -6.735000000
H     4.785000000    -3.211000000    -7.781000000
C     5.236000000    -2.357000000    -5.767000000
H     6.129000000    -1.822000000    -6.082000000
C     4.743000000    -2.250000000    -4.472000000
O     5.467000000    -1.425000000    -3.603000000
C     4.907000000    -0.377000000    -2.900000000
C     5.759000000     0.080000000    -1.946000000
H     6.542000000    -0.593000000    -1.605000000
C     5.517000000     1.220000000    -1.213000000
O     6.409000000     1.605000000    -0.183000000
C     6.324000000     2.675000000     0.671000000
C     6.414000000     3.944000000     0.136000000
H     6.696000000     4.033000000    -0.911000000
C     6.097000000     5.055000000     0.946000000
H     6.163000000     6.076000000     0.578000000
C     5.750000000     4.939000000     2.275000000
H     5.448000000     5.804000000     2.860000000
C     5.581000000     3.616000000     2.699000000
C     5.820000000     2.503000000     1.916000000
H     5.586000000     1.566000000     2.415000000
C     0.666000000    -1.406000000     2.060000000
H     0.625000000    -1.358000000     3.145000000
C    -0.077000000    -0.545000000     1.314000000
H    -0.742000000     0.154000000     1.815000000
C     0.060000000    -0.526000000    -0.075000000
H    -0.587000000     0.174000000    -0.613000000
C     0.914000000    -1.439000000    -0.603000000
H     1.062000000    -1.474000000    -1.679000000
C     1.684000000    -2.295000000     0.117000000
H     2.354000000    -2.880000000    -0.507000000
C     1.587000000    -2.338000000     1.531000000
C     2.456000000    -3.161000000     2.448000000
O     3.617000000    -3.461000000     2.129000000
O     2.092000000    -3.488000000     3.541000000
O     1.200000000    -3.700000000     8.193000000
H     0.779000000    -4.343000000     7.623000000
H     1.874000000    -3.299000000     7.645000000
O     5.883000000    -7.920000000     2.929000000
H     5.825000000    -8.045000000     3.876000000
H     6.750000000    -8.252000000     2.696000000
O     5.496000000    -1.708000000     2.267000000
H     5.021000000    -0.954000000     1.918000000
H     4.842000000    -2.406000000     2.307000000
O     0.250000000    -6.059000000     7.068000000
H     0.312000000    -7.014000000     7.080000000
H     0.237000000    -5.832000000     6.138000000
O     2.303000000    -6.133000000     1.063000000
H     2.393000000    -5.658000000     1.889000000
H     1.574000000    -6.735000000     1.211000000
O     5.009000000    -1.009000000     7.854000000
H     5.913000000    -0.947000000     8.162000000
H     5.080000000    -0.997000000     6.900000000
O     1.043000000    -5.696000000     4.194000000
H     1.506000000    -4.886000000     3.985000000
H     1.672000000    -6.390000000     3.997000000
O     4.089000000    -4.712000000    -0.407000000
H     3.882000000    -3.997000000     0.195000000
H     3.488000000    -5.415000000    -0.158000000
O     5.134000000    -4.534000000     6.258000000
H     5.191000000    -4.685000000     5.314000000
H     4.411000000    -3.915000000     6.358000000
O     8.415000000    -1.294000000     1.439000000
H     7.495000000    -1.501000000     1.276000000
H     8.664000000    -1.867000000     2.164000000
O     5.575000000    -6.595000000    -1.869000000
H     5.127000000    -5.821000000    -1.528000000
H     5.477000000    -7.252000000    -1.180000000
O     2.836000000    -2.778000000     6.106000000
H     2.508000000    -2.894000000     5.214000000
H     3.069000000    -1.851000000     6.158000000
O     6.183000000    -3.209000000    -1.078000000
H     5.733000000    -3.885000000    -0.572000000
H     5.478000000    -2.692000000    -1.468000000
O     5.408000000    -1.019000000     5.157000000
H     6.254000000    -0.986000000     5.605000000
H     5.605000000    -1.398000000     4.301000000
O     3.481000000     0.093000000     1.676000000
H     2.906000000    -0.241000000     0.988000000
H     2.950000000     0.053000000     2.472000000
O    -0.671000000    -8.109000000     4.254000000
H     0.140000000    -8.557000000     4.494000000
H    -0.417000000    -7.191000000     4.152000000
O     2.915000000    -7.510000000     3.683000000
H     2.977000000    -8.026000000     4.487000000
H     3.658000000    -7.800000000     3.155000000
O     7.997000000    -3.464000000     3.318000000
H     8.309000000    -3.671000000     4.199000000
H     7.078000000    -3.733000000     3.319000000
O     5.469000000    -4.824000000     3.566000000
H     5.449000000    -5.645000000     3.075000000
H     4.729000000    -4.322000000     3.223000000
