215
-1443.93160
C    -3.132000000    -3.293000000     2.894000000
H    -3.262000000    -3.585000000     1.855000000
C    -3.464000000    -1.958000000     3.247000000
C    -3.236000000    -1.613000000     4.606000000
H    -3.243000000    -0.555000000     4.856000000
C    -3.793000000    -0.940000000     2.187000000
O    -4.788000000    -1.445000000     1.308000000
H    -2.888000000    -0.662000000     1.627000000
O    -4.305000000     0.269000000     2.833000000
C    -3.949000000     1.477000000     2.277000000
C    -2.801000000     2.020000000     2.866000000
H    -2.492000000     1.510000000     3.775000000
C    -2.224000000     3.154000000     2.382000000
O    -1.028000000     3.545000000     2.925000000
C    -2.733000000     3.773000000     1.219000000
C    -2.139000000     5.015000000     0.602000000
H    -2.986000000     5.551000000     0.168000000
C    -0.999000000     4.793000000    -0.340000000
C    -1.132000000     4.676000000    -1.703000000
H    -2.143000000     4.740000000    -2.095000000
H    -1.910000000     5.687000000     1.431000000
C    -3.822000000     3.167000000     0.597000000
H    -4.141000000     3.670000000    -0.312000000
C    -4.381000000     1.976000000     0.983000000
C    -5.538000000     1.270000000     0.216000000
H    -6.057000000     1.991000000    -0.420000000
H    -6.318000000     0.879000000     0.871000000
C    -4.904000000     0.193000000    -0.489000000
C    -4.643000000     0.454000000    -1.841000000
H    -4.880000000     1.440000000    -2.234000000
C    -4.687000000    -1.131000000    -0.045000000
C    -4.020000000    -2.063000000    -0.827000000
H    -3.911000000    -3.064000000    -0.418000000
C    -3.703000000    -1.771000000    -2.135000000
O    -2.898000000    -2.614000000    -2.751000000
C    -1.459000000    -2.222000000    -2.683000000
C    -0.537000000    -3.426000000    -2.396000000
C     0.734000000    -3.338000000    -2.832000000
H     1.143000000    -2.477000000    -3.354000000
C    -0.994000000    -4.551000000    -1.682000000
H    -2.029000000    -4.682000000    -1.376000000
O    -1.036000000    -1.660000000    -3.993000000
H    -1.256000000    -1.466000000    -1.911000000
C    -4.034000000    -0.515000000    -2.677000000
C    -3.523000000    -0.117000000    -4.084000000
H    -4.268000000     0.544000000    -4.533000000
H    -3.493000000    -0.956000000    -4.783000000
C    -2.099000000     0.510000000    -4.125000000
C    -1.955000000     1.904000000    -3.978000000
H    -2.773000000     2.479000000    -3.551000000
C    -0.948000000    -0.301000000    -4.168000000
C     0.303000000     0.278000000    -4.271000000
H     1.198000000    -0.338000000    -4.311000000
C     0.397000000     1.655000000    -4.236000000
O     1.668000000     2.160000000    -4.398000000
C     2.411000000     2.516000000    -3.214000000
C     3.848000000     2.054000000    -3.239000000
C     4.289000000     0.959000000    -3.962000000
H     3.608000000     0.273000000    -4.459000000
C     4.752000000     2.798000000    -2.581000000
H     4.411000000     3.748000000    -2.177000000
O     2.238000000     3.943000000    -2.935000000
H     1.931000000     2.080000000    -2.325000000
C    -0.679000000     2.487000000    -4.051000000
C    -0.601000000     4.054000000    -3.945000000
H    -1.555000000     4.512000000    -4.217000000
H     0.189000000     4.432000000    -4.597000000
C    -0.161000000     4.312000000    -2.552000000
C     1.179000000     4.198000000    -2.148000000
C     1.351000000     4.256000000    -0.785000000
H     2.386000000     4.086000000    -0.499000000
C     0.283000000     4.509000000     0.127000000
O     0.557000000     4.479000000     1.460000000
C     0.147000000     3.281000000     2.125000000
H    -0.127000000     2.645000000     1.270000000
C     1.228000000     2.513000000     2.904000000
C     0.886000000     1.772000000     4.040000000
H    -0.133000000     1.737000000     4.417000000
C     2.548000000     2.459000000     2.394000000
H     2.859000000     3.017000000     1.515000000
C     3.534000000     1.752000000     3.093000000
O     4.811000000     1.661000000     2.596000000
C     3.217000000     1.035000000     4.289000000
H     4.007000000     0.444000000     4.746000000
C     1.891000000     1.104000000     4.731000000
O     1.589000000     0.277000000     5.823000000
C     0.348000000     0.259000000     6.403000000
C    -0.405000000    -0.923000000     6.250000000
H    -0.083000000    -1.733000000     5.601000000
C    -0.056000000     1.236000000     7.258000000
H     0.514000000     2.158000000     7.325000000
C    -1.201000000     1.042000000     8.048000000
H    -1.563000000     1.784000000     8.755000000
C    -1.903000000    -0.124000000     7.950000000
H    -2.748000000    -0.445000000     8.553000000
C    -1.574000000    -1.093000000     6.986000000
O    -2.420000000    -2.180000000     6.812000000
C    -2.826000000    -2.543000000     5.556000000
C    -2.555000000    -3.880000000     5.162000000
H    -2.066000000    -4.488000000     5.918000000
C    -2.659000000    -4.209000000     3.841000000
O    -2.404000000    -5.485000000     3.397000000
C    -2.603000000    -6.062000000     2.134000000
C    -1.536000000    -6.201000000     1.267000000
H    -0.608000000    -5.768000000     1.632000000
C    -3.840000000    -6.533000000     1.816000000
H    -4.699000000    -6.489000000     2.481000000
C    -4.080000000    -7.125000000     0.534000000
H    -5.059000000    -7.464000000     0.204000000
C    -2.956000000    -7.164000000    -0.373000000
H    -3.080000000    -7.519000000    -1.393000000
C    -1.675000000    -6.755000000    -0.034000000
O    -0.620000000    -6.805000000    -0.896000000
C    -0.178000000    -5.625000000    -1.511000000
C     1.138000000    -5.596000000    -1.961000000
H     1.841000000    -6.415000000    -1.835000000
C     1.621000000    -4.430000000    -2.595000000
O     2.983000000    -4.258000000    -2.852000000
C     3.520000000    -3.493000000    -3.850000000
C     4.521000000    -2.566000000    -3.587000000
H     4.787000000    -2.505000000    -2.534000000
C     3.048000000    -3.689000000    -5.171000000
H     2.357000000    -4.504000000    -5.368000000
C     3.571000000    -2.962000000    -6.226000000
H     3.197000000    -3.015000000    -7.245000000
C     4.559000000    -2.013000000    -5.947000000
H     4.954000000    -1.453000000    -6.791000000
C     5.016000000    -1.787000000    -4.633000000
O     5.974000000    -0.772000000    -4.393000000
C     5.592000000     0.477000000    -3.843000000
C     6.522000000     1.218000000    -3.196000000
H     7.543000000     0.857000000    -3.104000000
C     6.121000000     2.379000000    -2.460000000
O     7.000000000     2.852000000    -1.436000000
C     6.468000000     3.219000000    -0.224000000
C     6.575000000     4.517000000     0.204000000
H     7.059000000     5.289000000    -0.389000000
C     5.969000000     4.916000000     1.391000000
H     6.001000000     5.964000000     1.676000000
C     5.354000000     4.001000000     2.240000000
H     4.831000000     4.287000000     3.149000000
C     5.385000000     2.658000000     1.850000000
C     5.868000000     2.266000000     0.588000000
H     5.745000000     1.242000000     0.243000000
C     0.533000000    -1.693000000     1.345000000
H     0.062000000    -2.214000000     2.174000000
C    -0.047000000    -0.625000000     0.680000000
H    -0.959000000    -0.251000000     1.138000000
C     0.529000000     0.007000000    -0.430000000
H     0.120000000     0.896000000    -0.748000000
C     1.778000000    -0.419000000    -0.879000000
H     2.226000000    -0.069000000    -1.806000000
C     2.378000000    -1.494000000    -0.126000000
H     3.308000000    -1.865000000    -0.548000000
C     1.739000000    -2.148000000     0.839000000
C     2.466000000    -3.354000000     1.578000000
O     3.633000000    -3.503000000     1.507000000
O     1.907000000    -4.158000000     2.300000000
O     3.193000000    -1.958000000     6.906000000
H     3.996000000    -2.478000000     6.876000000
H     2.805000000    -2.067000000     6.038000000
O     5.902000000    -6.855000000     2.799000000
H     5.457000000    -7.089000000     1.985000000
H     6.831000000    -6.833000000     2.566000000
O     8.684000000    -4.442000000     0.322000000
H     9.473000000    -4.170000000    -0.147000000
H     7.981000000    -3.928000000    -0.074000000
O     3.579000000    -6.259000000     6.762000000
H     3.918000000    -5.419000000     7.073000000
H     3.667000000    -6.214000000     5.810000000
O     0.414000000    -5.710000000     7.614000000
H     0.590000000    -5.429000000     6.716000000
H     0.486000000    -6.664000000     7.584000000
O     2.329000000    -6.769000000     1.961000000
H     2.215000000    -5.820000000     1.917000000
H     3.054000000    -6.952000000     1.364000000
O     6.159000000    -0.735000000     4.130000000
H     5.513000000    -0.703000000     3.424000000
H     6.348000000    -1.667000000     4.240000000
O     1.023000000    -5.754000000     4.413000000
H     1.181000000    -5.132000000     3.704000000
H     1.699000000    -6.423000000     4.300000000
O     4.653000000    -4.879000000    -0.555000000
H     4.349000000    -4.363000000     0.191000000
H     3.909000000    -5.439000000    -0.778000000
O     5.627000000    -3.628000000     6.141000000
H     5.013000000    -4.080000000     5.563000000
H     6.462000000    -3.657000000     5.673000000
O     7.793000000     0.070000000     1.964000000
H     7.835000000    -0.184000000     2.886000000
H     6.947000000    -0.263000000     1.663000000
O     3.659000000    -7.654000000    -0.067000000
H     3.122000000    -8.435000000     0.067000000
H     4.494000000    -7.991000000    -0.393000000
O     2.522000000    -2.048000000     4.172000000
H     2.531000000    -2.898000000     3.732000000
H     2.534000000    -1.409000000     3.460000000
O     6.752000000    -3.750000000    -1.822000000
H     5.928000000    -4.115000000    -1.499000000
H     7.320000000    -4.511000000    -1.945000000
O     5.483000000    -1.616000000     1.485000000
H     4.796000000    -2.272000000     1.366000000
H     5.932000000    -1.583000000     0.640000000
O     6.914000000    -1.371000000    -0.587000000
H     7.758000000    -0.921000000    -0.598000000
H     6.970000000    -2.003000000    -1.305000000
O    -1.195000000    -7.396000000     4.916000000
H    -0.290000000    -7.636000000     5.111000000
H    -1.133000000    -6.524000000     4.527000000
O     1.048000000    -9.287000000     2.139000000
H     1.620000000    -8.534000000     2.289000000
H     1.232000000    -9.553000000     1.239000000
O     4.336000000    -4.967000000     4.017000000
H     5.011000000    -5.387000000     3.484000000
H     3.870000000    -4.396000000     3.407000000
