215
-1465.90975
C     2.226000000     2.989000000    -4.295000000
H     2.109000000     2.086000000    -4.888000000
C     2.817000000     2.920000000    -3.032000000
C     2.873000000     4.142000000    -2.334000000
H     3.355000000     4.034000000    -1.366000000
C     3.336000000     1.629000000    -2.465000000
O     3.531000000     0.632000000    -3.577000000
H     2.540000000     1.202000000    -1.837000000
O     4.565000000     1.854000000    -1.727000000
C     4.645000000     1.145000000    -0.541000000
C     4.087000000     1.707000000     0.645000000
H     3.650000000     2.702000000     0.661000000
C     4.029000000     0.993000000     1.821000000
O     3.406000000     1.588000000     2.828000000
C     4.374000000    -0.331000000     1.883000000
C     4.264000000    -1.199000000     3.054000000
H     4.931000000    -2.054000000     2.929000000
C     2.800000000    -1.651000000     3.316000000
C     2.543000000    -2.973000000     2.927000000
H     3.310000000    -3.599000000     2.480000000
H     4.646000000    -0.639000000     3.910000000
C     4.947000000    -0.891000000     0.748000000
H     5.214000000    -1.944000000     0.730000000
C     4.983000000    -0.195000000    -0.470000000
C     5.184000000    -0.957000000    -1.782000000
H     5.913000000    -1.714000000    -1.487000000
H     5.610000000    -0.323000000    -2.563000000
C     3.978000000    -1.476000000    -2.426000000
C     3.560000000    -2.785000000    -2.170000000
H     4.204000000    -3.363000000    -1.512000000
C     3.183000000    -0.663000000    -3.265000000
C     2.003000000    -1.083000000    -3.779000000
H     1.485000000    -0.457000000    -4.501000000
C     1.592000000    -2.360000000    -3.517000000
O     0.409000000    -2.798000000    -4.052000000
C    -0.640000000    -2.713000000    -3.110000000
C    -1.824000000    -1.990000000    -3.669000000
C    -3.148000000    -2.383000000    -3.332000000
H    -3.299000000    -3.365000000    -2.891000000
C    -1.637000000    -0.762000000    -4.293000000
H    -0.686000000    -0.371000000    -4.646000000
O    -1.014000000    -4.029000000    -2.618000000
H    -0.322000000    -2.181000000    -2.201000000
C     2.312000000    -3.195000000    -2.676000000
C     1.769000000    -4.589000000    -2.315000000
H     2.672000000    -5.150000000    -2.062000000
H     1.271000000    -5.094000000    -3.145000000
C     0.803000000    -4.591000000    -1.117000000
C     1.289000000    -4.849000000     0.212000000
H     2.334000000    -5.003000000     0.468000000
C    -0.613000000    -4.398000000    -1.340000000
C    -1.413000000    -4.352000000    -0.292000000
H    -2.465000000    -4.113000000    -0.422000000
C    -0.919000000    -4.428000000     1.021000000
O    -1.898000000    -4.193000000     1.953000000
C    -1.847000000    -2.965000000     2.682000000
C    -3.240000000    -2.481000000     2.954000000
C    -4.233000000    -2.810000000     2.059000000
H    -4.035000000    -3.175000000     1.054000000
C    -3.477000000    -1.609000000     4.018000000
H    -2.659000000    -1.207000000     4.611000000
O    -1.060000000    -3.186000000     3.901000000
H    -1.331000000    -2.161000000     2.135000000
C     0.380000000    -4.753000000     1.270000000
C     0.957000000    -4.862000000     2.716000000
H     1.833000000    -5.508000000     2.802000000
H     0.197000000    -5.302000000     3.365000000
C     1.262000000    -3.474000000     3.206000000
C     0.246000000    -2.754000000     3.835000000
C     0.581000000    -1.424000000     4.192000000
H    -0.215000000    -0.845000000     4.654000000
C     1.816000000    -0.905000000     3.992000000
O     2.052000000     0.446000000     4.298000000
C     2.064000000     1.340000000     3.128000000
H     1.626000000     0.780000000     2.289000000
C     1.254000000     2.604000000     3.438000000
C     1.599000000     3.888000000     2.940000000
H     2.487000000     3.960000000     2.317000000
C     0.093000000     2.465000000     4.164000000
H    -0.096000000     1.489000000     4.602000000
C    -0.877000000     3.491000000     4.276000000
O    -2.162000000     3.356000000     4.724000000
C    -0.517000000     4.734000000     3.735000000
H    -1.229000000     5.540000000     3.891000000
C     0.688000000     4.985000000     3.130000000
O     0.886000000     6.257000000     2.591000000
C     1.864000000     6.499000000     1.664000000
C     1.518000000     6.419000000     0.357000000
H     0.466000000     6.417000000     0.083000000
C     3.264000000     6.560000000     2.022000000
H     3.571000000     6.709000000     3.054000000
C     4.263000000     6.419000000     1.085000000
H     5.295000000     6.419000000     1.426000000
C     3.926000000     6.444000000    -0.237000000
H     4.681000000     6.543000000    -1.012000000
C     2.543000000     6.488000000    -0.619000000
O     2.214000000     6.407000000    -1.943000000
C     2.259000000     5.323000000    -2.756000000
C     1.840000000     5.367000000    -4.082000000
H     1.633000000     6.337000000    -4.527000000
C     1.658000000     4.169000000    -4.778000000
O     1.078000000     4.225000000    -6.026000000
C     0.153000000     3.230000000    -6.437000000
C    -0.780000000     2.620000000    -5.505000000
H    -0.902000000     2.956000000    -4.479000000
C     0.380000000     2.666000000    -7.672000000
H     1.265000000     3.028000000    -8.189000000
C    -0.520000000     1.741000000    -8.203000000
H    -0.463000000     1.554000000    -9.272000000
C    -1.525000000     1.242000000    -7.393000000
H    -2.408000000     0.707000000    -7.733000000
C    -1.546000000     1.566000000    -6.005000000
O    -2.658000000     1.220000000    -5.346000000
C    -2.754000000     0.085000000    -4.615000000
C    -3.980000000    -0.271000000    -4.143000000
H    -4.810000000     0.429000000    -4.086000000
C    -4.225000000    -1.545000000    -3.524000000
O    -5.494000000    -1.800000000    -3.069000000
C    -5.692000000    -2.717000000    -2.059000000
C    -5.991000000    -2.270000000    -0.780000000
H    -5.930000000    -1.191000000    -0.663000000
C    -5.558000000    -4.122000000    -2.291000000
H    -5.511000000    -4.482000000    -3.315000000
C    -5.876000000    -4.983000000    -1.297000000
H    -5.799000000    -6.039000000    -1.543000000
C    -6.204000000    -4.511000000    -0.049000000
H    -6.417000000    -5.154000000     0.801000000
C    -6.350000000    -3.167000000     0.185000000
O    -6.620000000    -2.822000000     1.502000000
C    -5.550000000    -2.500000000     2.375000000
C    -5.869000000    -1.772000000     3.526000000
H    -6.919000000    -1.652000000     3.781000000
C    -4.820000000    -1.234000000     4.250000000
O    -5.106000000    -0.367000000     5.288000000
C    -4.179000000     0.498000000     5.859000000
C    -3.488000000     0.222000000     7.068000000
H    -3.856000000    -0.556000000     7.733000000
C    -2.381000000     0.961000000     7.490000000
H    -1.798000000     0.681000000     8.364000000
C    -1.986000000     2.070000000     6.762000000
H    -1.181000000     2.732000000     7.072000000
C    -2.677000000     2.442000000     5.627000000
C    -3.757000000     1.656000000     5.189000000
H    -4.248000000     1.837000000     4.237000000
C    -2.259000000     1.033000000    -0.972000000
H    -3.292000000     1.008000000    -1.309000000
C    -1.653000000    -0.075000000    -0.406000000
H    -2.159000000    -1.026000000    -0.264000000
C    -0.332000000     0.081000000     0.083000000
H     0.085000000    -0.793000000     0.409000000
C     0.374000000     1.243000000    -0.192000000
H     1.443000000     1.321000000    -0.010000000
C    -0.249000000     2.333000000    -0.805000000
H     0.272000000     3.224000000    -1.145000000
C    -1.561000000     2.197000000    -1.242000000
C    -2.377000000     3.445000000    -1.776000000
O    -1.848000000     4.590000000    -1.647000000
O    -3.472000000     3.312000000    -2.307000000
O    -3.418000000     7.146000000     1.832000000
H    -2.923000000     7.053000000     1.019000000
H    -3.537000000     6.248000000     2.145000000
O    -6.657000000     4.665000000     0.612000000
H    -6.244000000     5.356000000     0.094000000
H    -6.269000000     3.854000000     0.284000000
O    -2.467000000     5.809000000    -6.452000000
H    -2.027000000     5.764000000    -5.603000000
H    -2.331000000     6.710000000    -6.744000000
O    -2.006000000     8.045000000    -3.075000000
H    -1.771000000     7.173000000    -3.392000000
H    -2.952000000     8.103000000    -3.211000000
O    -3.720000000     2.119000000     1.658000000
H    -3.466000000     3.031000000     1.801000000
H    -2.909000000     1.683000000     1.397000000
O    -1.971000000     6.949000000    -0.566000000
H    -1.807000000     6.119000000    -1.013000000
H    -2.142000000     7.571000000    -1.273000000
O    -9.471000000     3.913000000    -1.872000000
H   -10.095000000     4.627000000    -1.999000000
H    -8.631000000     4.277000000    -2.151000000
O    -0.258000000     9.950000000    -2.106000000
H    -0.568000000     9.176000000    -2.577000000
H     0.589000000    10.150000000    -2.505000000
O    -3.557000000     4.681000000     2.831000000
H    -4.500000000     4.614000000     2.982000000
H    -3.161000000     4.418000000     3.661000000
O    -4.443000000     7.561000000    -3.742000000
H    -4.784000000     6.707000000    -4.007000000
H    -4.367000000     8.053000000    -4.559000000
O    -5.550000000     2.502000000    -0.749000000
H    -5.037000000     2.273000000     0.026000000
H    -4.896000000     2.734000000    -1.409000000
O    -8.572000000     6.603000000    -3.621000000
H    -8.192000000     7.482000000    -3.609000000
H    -7.897000000     6.045000000    -3.234000000
O    -5.041000000     4.481000000    -7.646000000
H    -4.762000000     4.218000000    -6.768000000
H    -4.708000000     5.373000000    -7.745000000
O    -6.894000000     4.524000000    -2.937000000
H    -6.192000000     4.499000000    -3.588000000
H    -6.460000000     4.796000000    -2.128000000
O    -4.779000000     5.702000000    -1.228000000
H    -4.076000000     5.132000000    -1.540000000
H    -4.595000000     6.551000000    -1.630000000
O    -1.269000000     5.616000000    -4.115000000
H    -1.426000000     5.075000000    -3.342000000
H    -0.324000000     5.561000000    -4.258000000
O    -0.789000000     9.142000000     1.045000000
H    -0.826000000     8.300000000     0.590000000
H    -1.508000000     9.649000000     0.667000000
O    -7.292000000     1.304000000    -2.465000000
H    -7.280000000     1.919000000    -3.199000000
H    -6.661000000     1.663000000    -1.842000000
O    -4.465000000     4.921000000    -4.473000000
H    -4.196000000     4.251000000    -3.845000000
H    -3.722000000     5.001000000    -5.071000000
