215
-1451.45108
C    -3.726000000    -2.860000000     3.405000000
H    -4.260000000    -3.251000000     2.543000000
C    -3.500000000    -1.468000000     3.579000000
C    -2.886000000    -0.983000000     4.708000000
H    -2.679000000     0.082000000     4.780000000
C    -3.840000000    -0.508000000     2.448000000
O    -4.865000000    -1.055000000     1.662000000
H    -2.926000000    -0.433000000     1.840000000
O    -4.219000000     0.820000000     2.904000000
C    -3.607000000     1.831000000     2.218000000
C    -2.492000000     2.448000000     2.813000000
H    -2.066000000     2.179000000     3.777000000
C    -1.916000000     3.569000000     2.163000000
O    -0.715000000     3.985000000     2.618000000
C    -2.445000000     4.011000000     0.927000000
C    -1.810000000     5.197000000     0.210000000
H    -2.572000000     5.733000000    -0.359000000
C    -0.749000000     4.853000000    -0.764000000
C    -1.051000000     4.541000000    -2.075000000
H    -2.058000000     4.633000000    -2.473000000
H    -1.458000000     5.941000000     0.927000000
C    -3.552000000     3.452000000     0.376000000
H    -3.932000000     3.802000000    -0.580000000
C    -4.148000000     2.340000000     1.005000000
C    -5.266000000     1.589000000     0.382000000
H    -5.783000000     2.303000000    -0.262000000
H    -5.949000000     1.203000000     1.142000000
C    -4.714000000     0.355000000    -0.321000000
C    -4.441000000     0.537000000    -1.650000000
H    -4.534000000     1.532000000    -2.077000000
C    -4.614000000    -0.928000000     0.279000000
C    -4.093000000    -2.002000000    -0.485000000
H    -3.987000000    -2.972000000    -0.006000000
C    -3.708000000    -1.729000000    -1.831000000
O    -3.125000000    -2.737000000    -2.624000000
C    -1.726000000    -2.457000000    -2.950000000
C    -0.818000000    -3.607000000    -2.574000000
C     0.262000000    -4.026000000    -3.322000000
H     0.450000000    -3.753000000    -4.357000000
C    -1.059000000    -4.222000000    -1.337000000
H    -1.876000000    -3.822000000    -0.742000000
O    -1.640000000    -1.952000000    -4.333000000
H    -1.341000000    -1.692000000    -2.260000000
C    -4.037000000    -0.510000000    -2.472000000
C    -3.737000000    -0.178000000    -3.933000000
H    -4.500000000     0.524000000    -4.277000000
H    -3.914000000    -1.030000000    -4.593000000
C    -2.388000000     0.358000000    -4.211000000
C    -2.120000000     1.732000000    -4.151000000
H    -2.876000000     2.500000000    -4.008000000
C    -1.396000000    -0.588000000    -4.417000000
C    -0.091000000    -0.126000000    -4.502000000
H     0.654000000    -0.894000000    -4.312000000
C     0.198000000     1.268000000    -4.557000000
O     1.476000000     1.763000000    -4.652000000
C     2.118000000     1.964000000    -3.382000000
C     3.439000000     1.199000000    -3.199000000
C     3.704000000     0.161000000    -4.064000000
H     2.943000000    -0.024000000    -4.819000000
C     4.257000000     1.386000000    -2.087000000
H     4.077000000     2.160000000    -1.346000000
O     2.301000000     3.389000000    -3.197000000
H     1.525000000     1.720000000    -2.488000000
C    -0.809000000     2.177000000    -4.311000000
C    -0.478000000     3.653000000    -4.358000000
H    -1.350000000     4.136000000    -4.804000000
H     0.293000000     3.810000000    -5.116000000
C    -0.067000000     4.195000000    -2.997000000
C     1.258000000     4.055000000    -2.505000000
C     1.630000000     4.349000000    -1.128000000
H     2.644000000     4.127000000    -0.804000000
C     0.555000000     4.716000000    -0.300000000
O     0.883000000     4.844000000     1.007000000
C     0.465000000     3.735000000     1.871000000
H     0.296000000     2.931000000     1.140000000
C     1.558000000     3.360000000     2.801000000
C     1.220000000     2.582000000     3.924000000
H     0.193000000     2.255000000     4.065000000
C     2.964000000     3.508000000     2.508000000
H     3.187000000     3.965000000     1.547000000
C     3.935000000     3.081000000     3.399000000
O     5.258000000     3.295000000     3.054000000
C     3.578000000     2.414000000     4.514000000
H     4.306000000     1.922000000     5.154000000
C     2.216000000     2.112000000     4.757000000
O     1.903000000     1.426000000     5.928000000
C     0.633000000     1.240000000     6.536000000
C     0.056000000    -0.053000000     6.429000000
H     0.515000000    -0.852000000     5.852000000
C     0.059000000     2.201000000     7.325000000
H     0.462000000     3.209000000     7.385000000
C    -1.151000000     2.014000000     7.904000000
H    -1.716000000     2.783000000     8.426000000
C    -1.770000000     0.756000000     7.778000000
H    -2.681000000     0.479000000     8.303000000
C    -1.167000000    -0.289000000     7.065000000
O    -1.863000000    -1.461000000     6.922000000
C    -2.444000000    -1.871000000     5.728000000
C    -2.676000000    -3.257000000     5.523000000
H    -2.290000000    -4.010000000     6.204000000
C    -3.205000000    -3.724000000     4.380000000
O    -3.217000000    -5.099000000     4.350000000
C    -3.030000000    -5.661000000     3.079000000
C    -1.782000000    -5.489000000     2.467000000
H    -1.006000000    -4.868000000     2.908000000
C    -4.059000000    -6.400000000     2.528000000
H    -4.874000000    -6.691000000     3.186000000
C    -3.908000000    -6.823000000     1.185000000
H    -4.752000000    -7.343000000     0.741000000
C    -2.715000000    -6.500000000     0.479000000
H    -2.614000000    -6.875000000    -0.536000000
C    -1.660000000    -5.868000000     1.172000000
O    -0.498000000    -5.657000000     0.486000000
C    -0.207000000    -5.171000000    -0.746000000
C     0.898000000    -5.551000000    -1.540000000
H     1.688000000    -6.139000000    -1.081000000
C     1.120000000    -4.944000000    -2.765000000
O     2.311000000    -5.309000000    -3.351000000
C     2.987000000    -4.572000000    -4.343000000
C     3.588000000    -3.317000000    -4.084000000
H     3.644000000    -2.882000000    -3.090000000
C     3.196000000    -5.254000000    -5.528000000
H     2.640000000    -6.168000000    -5.720000000
C     3.967000000    -4.743000000    -6.536000000
H     4.024000000    -5.314000000    -7.459000000
C     4.671000000    -3.529000000    -6.250000000
H     5.272000000    -3.093000000    -7.043000000
C     4.392000000    -2.799000000    -5.073000000
O     5.106000000    -1.593000000    -4.826000000
C     4.877000000    -0.588000000    -3.922000000
C     5.691000000    -0.493000000    -2.848000000
H     6.627000000    -1.039000000    -2.761000000
C     5.391000000     0.564000000    -1.970000000
O     6.157000000     0.711000000    -0.850000000
C     6.224000000     1.959000000    -0.164000000
C     6.762000000     3.087000000    -0.752000000
H     7.046000000     3.076000000    -1.802000000
C     6.812000000     4.282000000    -0.090000000
H     7.137000000     5.152000000    -0.654000000
C     6.314000000     4.355000000     1.189000000
H     6.436000000     5.244000000     1.803000000
C     5.794000000     3.206000000     1.791000000
C     5.728000000     1.941000000     1.122000000
H     5.278000000     1.063000000     1.578000000
C     0.673000000    -2.405000000     1.151000000
H     0.298000000    -3.377000000     1.460000000
C    -0.177000000    -1.300000000     1.209000000
H    -1.178000000    -1.388000000     1.624000000
C     0.308000000    -0.113000000     0.679000000
H    -0.493000000     0.585000000     0.591000000
C     1.626000000     0.004000000     0.202000000
H     1.934000000     0.916000000    -0.304000000
C     2.443000000    -1.135000000     0.187000000
H     3.494000000    -1.085000000    -0.084000000
C     2.002000000    -2.300000000     0.684000000
C     3.003000000    -3.477000000     0.807000000
O     4.228000000    -3.354000000     0.541000000
O     2.716000000    -4.449000000     1.441000000
O     1.975000000    -1.407000000     3.650000000
H     1.556000000    -1.416000000     2.790000000
H     2.868000000    -1.107000000     3.479000000
O     5.571000000    -6.523000000    -3.993000000
H     6.230000000    -6.264000000    -4.638000000
H     5.296000000    -5.701000000    -3.588000000
O     7.901000000    -5.549000000     1.198000000
H     8.514000000    -5.090000000     0.624000000
H     8.053000000    -6.477000000     1.018000000
O     4.173000000    -6.761000000     0.676000000
H     3.823000000    -6.178000000     1.350000000
H     5.094000000    -6.874000000     0.912000000
O     4.508000000    -1.006000000     2.885000000
H     5.161000000    -1.612000000     3.235000000
H     4.294000000    -1.359000000     2.021000000
O     1.426000000    -7.130000000     2.382000000
H     1.079000000    -6.312000000     2.024000000
H     2.113000000    -6.853000000     2.988000000
O     2.189000000    -3.666000000     6.828000000
H     2.418000000    -2.741000000     6.920000000
H     2.271000000    -3.841000000     5.891000000
O     6.014000000    -0.429000000     5.374000000
H     5.337000000    -0.232000000     4.726000000
H     6.787000000     0.042000000     5.064000000
O     0.562000000    -8.539000000    -3.104000000
H     0.702000000    -7.892000000    -2.412000000
H     0.113000000    -9.263000000    -2.667000000
O     5.277000000    -4.509000000    -1.718000000
H     4.789000000    -3.955000000    -1.110000000
H     4.806000000    -5.342000000    -1.714000000
O     7.461000000    -4.508000000     4.974000000
H     6.692000000    -4.616000000     4.415000000
H     8.132000000    -4.150000000     4.393000000
O     2.505000000    -8.930000000    -0.538000000
H     2.883000000    -8.127000000    -0.181000000
H     3.226000000    -9.343000000    -1.013000000
O     8.262000000    -1.403000000     3.542000000
H     8.530000000    -2.293000000     3.312000000
H     7.542000000    -1.207000000     2.943000000
O     2.330000000    -3.948000000     4.174000000
H     2.022000000    -3.042000000     4.187000000
H     2.298000000    -4.198000000     3.250000000
O     7.734000000    -4.117000000    -3.027000000
H     6.891000000    -4.182000000    -2.578000000
H     8.383000000    -4.174000000    -2.327000000
O     6.784000000    -1.779000000     1.182000000
H     6.142000000    -2.396000000     0.832000000
H     7.066000000    -1.270000000     0.421000000
O     6.644000000    -7.861000000    -0.947000000
H     7.600000000    -7.862000000    -0.990000000
H     6.370000000    -7.350000000    -1.708000000
O     4.211000000    -6.012000000     4.245000000
H     3.585000000    -5.332000000     4.495000000
H     4.768000000    -5.595000000     3.587000000
O     5.578000000    -4.594000000     2.406000000
H     6.356000000    -4.650000000     1.851000000
H     4.902000000    -4.229000000     1.836000000
