215
-1449.43983
C    -3.077000000    -3.463000000     3.085000000
H    -3.889000000    -3.634000000     2.382000000
C    -2.720000000    -2.097000000     3.312000000
C    -1.610000000    -1.839000000     4.163000000
H    -1.317000000    -0.795000000     4.242000000
C    -3.345000000    -0.963000000     2.460000000
O    -4.589000000    -1.321000000     1.864000000
H    -2.756000000    -0.488000000     1.661000000
O    -3.767000000     0.226000000     3.337000000
C    -3.394000000     1.425000000     2.794000000
C    -2.180000000     2.056000000     3.141000000
H    -1.484000000     1.606000000     3.845000000
C    -1.891000000     3.292000000     2.639000000
O    -0.778000000     3.827000000     3.173000000
C    -2.674000000     3.868000000     1.636000000
C    -2.145000000     5.184000000     0.934000000
H    -2.945000000     5.618000000     0.331000000
C    -1.058000000     4.757000000    -0.058000000
C    -1.429000000     4.573000000    -1.397000000
H    -2.435000000     4.778000000    -1.753000000
H    -1.793000000     6.000000000     1.569000000
C    -3.749000000     3.189000000     1.135000000
H    -4.368000000     3.587000000     0.335000000
C    -4.138000000     2.009000000     1.773000000
C    -5.387000000     1.336000000     1.252000000
H    -6.018000000     2.088000000     0.775000000
H    -5.992000000     0.938000000     2.069000000
C    -5.132000000     0.262000000     0.240000000
C    -4.901000000     0.622000000    -1.095000000
H    -5.033000000     1.664000000    -1.375000000
C    -4.761000000    -1.039000000     0.596000000
C    -4.185000000    -1.955000000    -0.339000000
H    -3.741000000    -2.867000000     0.053000000
C    -4.009000000    -1.598000000    -1.651000000
O    -3.286000000    -2.519000000    -2.376000000
C    -1.917000000    -2.201000000    -2.718000000
C    -1.045000000    -3.398000000    -2.732000000
C     0.029000000    -3.467000000    -3.607000000
H     0.366000000    -2.675000000    -4.271000000
C    -1.303000000    -4.489000000    -1.829000000
H    -2.146000000    -4.407000000    -1.147000000
O    -1.871000000    -1.548000000    -4.025000000
H    -1.395000000    -1.576000000    -1.979000000
C    -4.342000000    -0.297000000    -2.006000000
C    -4.187000000     0.082000000    -3.412000000
H    -4.928000000     0.816000000    -3.736000000
H    -4.431000000    -0.760000000    -4.062000000
C    -2.779000000     0.636000000    -3.764000000
C    -2.437000000     1.945000000    -3.632000000
H    -3.197000000     2.648000000    -3.299000000
C    -1.738000000    -0.228000000    -4.087000000
C    -0.458000000     0.188000000    -4.383000000
H     0.370000000    -0.473000000    -4.627000000
C    -0.147000000     1.568000000    -4.359000000
O     1.189000000     1.978000000    -4.540000000
C     1.894000000     2.191000000    -3.248000000
C     3.277000000     1.645000000    -3.223000000
C     3.633000000     0.536000000    -3.955000000
H     2.852000000     0.047000000    -4.532000000
C     4.246000000     2.209000000    -2.384000000
H     3.941000000     3.124000000    -1.884000000
O     1.761000000     3.636000000    -2.958000000
H     1.336000000     1.571000000    -2.532000000
C    -1.148000000     2.431000000    -3.938000000
C    -0.990000000     3.892000000    -3.860000000
H    -1.914000000     4.459000000    -3.992000000
H    -0.183000000     4.303000000    -4.469000000
C    -0.530000000     4.215000000    -2.437000000
C     0.806000000     4.057000000    -2.095000000
C     1.191000000     4.259000000    -0.730000000
H     2.218000000     4.020000000    -0.464000000
C     0.267000000     4.498000000     0.258000000
O     0.806000000     4.543000000     1.581000000
C     0.464000000     3.513000000     2.500000000
H     0.275000000     2.597000000     1.920000000
C     1.633000000     3.143000000     3.373000000
C     1.448000000     2.646000000     4.637000000
H     0.431000000     2.653000000     5.020000000
C     2.934000000     3.221000000     2.747000000
H     3.032000000     3.717000000     1.785000000
C     4.013000000     2.791000000     3.462000000
O     5.255000000     2.919000000     3.008000000
C     3.822000000     2.283000000     4.711000000
H     4.674000000     1.982000000     5.315000000
C     2.540000000     2.203000000     5.325000000
O     2.369000000     1.544000000     6.529000000
C     1.355000000     0.724000000     6.876000000
C     1.335000000    -0.565000000     6.292000000
H     2.125000000    -0.912000000     5.630000000
C     0.374000000     1.110000000     7.843000000
H     0.356000000     2.046000000     8.394000000
C    -0.745000000     0.224000000     7.931000000
H    -1.567000000     0.421000000     8.614000000
C    -0.921000000    -0.878000000     7.125000000
H    -1.934000000    -1.270000000     7.176000000
C     0.182000000    -1.366000000     6.324000000
O     0.139000000    -2.560000000     5.618000000
C    -0.940000000    -2.882000000     4.817000000
C    -1.290000000    -4.143000000     4.572000000
H    -0.782000000    -4.957000000     5.081000000
C    -2.287000000    -4.452000000     3.659000000
O    -2.570000000    -5.793000000     3.512000000
C    -2.615000000    -6.396000000     2.217000000
C    -1.641000000    -6.061000000     1.195000000
H    -0.915000000    -5.296000000     1.458000000
C    -3.488000000    -7.419000000     1.874000000
H    -4.290000000    -7.608000000     2.583000000
C    -3.467000000    -7.958000000     0.600000000
H    -4.238000000    -8.672000000     0.322000000
C    -2.487000000    -7.662000000    -0.339000000
H    -2.389000000    -8.227000000    -1.263000000
C    -1.610000000    -6.638000000    -0.087000000
O    -0.534000000    -6.474000000    -0.924000000
C    -0.382000000    -5.519000000    -1.792000000
C     0.712000000    -5.679000000    -2.736000000
H     1.526000000    -6.399000000    -2.690000000
C     0.836000000    -4.647000000    -3.658000000
O     1.727000000    -4.810000000    -4.682000000
C     2.567000000    -3.803000000    -5.165000000
C     3.483000000    -3.025000000    -4.384000000
H     3.636000000    -3.215000000    -3.325000000
C     2.386000000    -3.545000000    -6.546000000
H     1.684000000    -4.136000000    -7.129000000
C     3.159000000    -2.603000000    -7.165000000
H     3.094000000    -2.508000000    -8.246000000
C     4.035000000    -1.820000000    -6.406000000
H     4.683000000    -1.036000000    -6.789000000
C     4.169000000    -2.055000000    -5.026000000
O     5.081000000    -1.330000000    -4.368000000
C     4.821000000    -0.154000000    -3.800000000
C     5.776000000     0.420000000    -2.994000000
H     6.763000000    -0.018000000    -2.865000000
C     5.472000000     1.594000000    -2.307000000
O     6.436000000     2.184000000    -1.532000000
C     6.073000000     3.131000000    -0.608000000
C     6.228000000     4.524000000    -0.812000000
H     6.539000000     4.904000000    -1.782000000
C     6.006000000     5.387000000     0.295000000
H     6.063000000     6.463000000     0.154000000
C     5.764000000     4.798000000     1.590000000
H     5.656000000     5.475000000     2.433000000
C     5.595000000     3.419000000     1.763000000
C     5.714000000     2.589000000     0.712000000
H     5.476000000     1.533000000     0.809000000
C     1.394000000    -1.613000000     1.774000000
H     1.291000000    -1.859000000     2.828000000
C     1.091000000    -0.267000000     1.464000000
H     0.799000000     0.411000000     2.261000000
C     1.338000000     0.204000000     0.194000000
H     1.231000000     1.218000000    -0.079000000
C     1.723000000    -0.758000000    -0.782000000
H     1.943000000    -0.460000000    -1.804000000
C     1.848000000    -2.089000000    -0.496000000
H     2.103000000    -2.727000000    -1.338000000
C     1.719000000    -2.551000000     0.820000000
C     2.114000000    -3.941000000     1.239000000
O     2.579000000    -4.673000000     0.379000000
O     1.882000000    -4.228000000     2.360000000
O     6.186000000    -4.587000000     5.318000000
H     6.979000000    -4.129000000     5.595000000
H     6.244000000    -4.611000000     4.363000000
O     4.839000000    -3.190000000    -0.494000000
H     5.258000000    -3.626000000    -1.236000000
H     4.031000000    -3.683000000    -0.352000000
O     2.899000000    -4.122000000     4.871000000
H     2.093000000    -4.328000000     5.343000000
H     2.608000000    -3.895000000     3.988000000
O     2.830000000    -9.124000000     2.458000000
H     2.400000000    -9.966000000     2.605000000
H     2.361000000    -8.742000000     1.716000000
O     4.390000000    -1.668000000     5.016000000
H     4.971000000    -1.645000000     4.256000000
H     4.041000000    -2.559000000     5.024000000
O     0.936000000    -6.676000000     3.694000000
H     1.852000000    -6.778000000     3.955000000
H     0.893000000    -5.801000000     3.308000000
O     4.289000000    -6.824000000    -0.935000000
H     3.429000000    -6.543000000    -0.620000000
H     4.445000000    -7.658000000    -0.493000000
O     4.085000000    -7.826000000    -3.693000000
H     3.741000000    -8.716000000    -3.624000000
H     4.010000000    -7.472000000    -2.807000000
O     4.055000000    -6.848000000     4.635000000
H     4.285000000    -6.779000000     3.709000000
H     3.889000000    -5.946000000     4.909000000
O     7.743000000    -5.184000000     0.358000000
H     8.417000000    -5.825000000     0.585000000
H     7.050000000    -5.701000000    -0.054000000
O     6.871000000    -7.787000000     2.277000000
H     6.013000000    -7.381000000     2.155000000
H     7.265000000    -7.779000000     1.404000000
O     4.542000000    -6.193000000     2.011000000
H     4.913000000    -5.315000000     2.098000000
H     3.775000000    -6.074000000     1.451000000
O     6.923000000    -0.176000000     3.199000000
H     6.061000000    -0.145000000     2.784000000
H     7.494000000     0.307000000     2.602000000
O     6.291000000    -3.917000000     2.241000000
H     6.789000000    -4.444000000     1.616000000
H     6.535000000    -3.013000000     2.040000000
O     4.829000000    -1.367000000     1.398000000
H     3.991000000    -0.905000000     1.401000000
H     4.661000000    -2.165000000     0.897000000
O     1.934000000    -9.453000000    -2.046000000
H     1.145000000    -9.986000000    -1.952000000
H     1.775000000    -8.690000000    -1.489000000
O     5.711000000    -4.915000000    -2.458000000
H     5.577000000    -4.950000000    -3.405000000
H     5.108000000    -5.570000000    -2.106000000
O    -0.095000000    -8.733000000     2.562000000
H    -0.853000000    -8.937000000     3.110000000
H     0.276000000    -7.942000000     2.952000000
O     1.686000000    -7.730000000     0.204000000
H     1.185000000    -7.088000000    -0.298000000
H     1.187000000    -7.845000000     1.012000000
