215
-1452.43032
C    -2.683000000    -3.933000000     2.629000000
H    -3.200000000    -4.074000000     1.684000000
C    -2.772000000    -2.625000000     3.189000000
C    -2.072000000    -2.364000000     4.449000000
H    -2.196000000    -1.362000000     4.851000000
C    -3.339000000    -1.446000000     2.319000000
O    -4.346000000    -1.841000000     1.393000000
H    -2.522000000    -1.122000000     1.657000000
O    -3.897000000    -0.305000000     3.085000000
C    -3.549000000     0.963000000     2.613000000
C    -2.380000000     1.525000000     3.084000000
H    -1.865000000     0.964000000     3.859000000
C    -1.938000000     2.806000000     2.641000000
O    -0.774000000     3.289000000     3.204000000
C    -2.789000000     3.524000000     1.743000000
C    -2.401000000     4.871000000     1.207000000
H    -3.264000000     5.237000000     0.647000000
C    -1.367000000     4.739000000     0.098000000
C    -1.757000000     4.606000000    -1.186000000
H    -2.798000000     4.691000000    -1.487000000
H    -1.960000000     5.511000000     1.974000000
C    -3.884000000     2.880000000     1.207000000
H    -4.597000000     3.332000000     0.522000000
C    -4.331000000     1.627000000     1.631000000
C    -5.448000000     0.877000000     0.981000000
H    -6.064000000     1.701000000     0.615000000
H    -6.020000000     0.243000000     1.662000000
C    -4.815000000     0.052000000    -0.137000000
C    -4.695000000     0.541000000    -1.458000000
H    -4.916000000     1.591000000    -1.630000000
C    -4.396000000    -1.332000000     0.148000000
C    -3.961000000    -2.140000000    -0.920000000
H    -3.758000000    -3.178000000    -0.669000000
C    -3.901000000    -1.662000000    -2.204000000
O    -3.182000000    -2.486000000    -3.065000000
C    -1.784000000    -2.101000000    -3.345000000
C    -0.967000000    -3.355000000    -3.402000000
C     0.111000000    -3.505000000    -4.280000000
H     0.262000000    -2.638000000    -4.918000000
C    -1.126000000    -4.336000000    -2.383000000
H    -2.016000000    -4.284000000    -1.761000000
O    -1.648000000    -1.349000000    -4.652000000
H    -1.465000000    -1.561000000    -2.441000000
C    -4.211000000    -0.300000000    -2.503000000
C    -4.131000000     0.164000000    -3.955000000
H    -4.907000000     0.929000000    -4.027000000
H    -4.466000000    -0.634000000    -4.621000000
C    -2.793000000     0.798000000    -4.259000000
C    -2.641000000     2.177000000    -3.965000000
H    -3.514000000     2.672000000    -3.547000000
C    -1.660000000     0.060000000    -4.648000000
C    -0.460000000     0.728000000    -4.685000000
H     0.445000000     0.145000000    -4.838000000
C    -0.292000000     2.087000000    -4.458000000
O     1.049000000     2.472000000    -4.398000000
C     1.582000000     2.810000000    -3.123000000
C     3.062000000     2.327000000    -2.904000000
C     3.254000000     0.933000000    -3.073000000
H     2.424000000     0.372000000    -3.495000000
C     4.038000000     3.135000000    -2.232000000
H     3.861000000     4.183000000    -2.005000000
O     1.503000000     4.263000000    -2.855000000
H     0.923000000     2.221000000    -2.469000000
C    -1.428000000     2.843000000    -4.108000000
C    -1.297000000     4.320000000    -3.733000000
H    -2.234000000     4.848000000    -3.920000000
H    -0.543000000     4.765000000    -4.385000000
C    -0.865000000     4.550000000    -2.274000000
C     0.509000000     4.505000000    -1.925000000
C     0.935000000     4.426000000    -0.613000000
H     1.988000000     4.357000000    -0.351000000
C     0.020000000     4.585000000     0.398000000
O     0.513000000     4.566000000     1.649000000
C     0.373000000     3.249000000     2.345000000
H     0.256000000     2.443000000     1.605000000
C     1.533000000     2.729000000     3.253000000
C     1.363000000     1.770000000     4.329000000
H     0.376000000     1.332000000     4.453000000
C     2.822000000     3.158000000     2.962000000
H     2.875000000     3.811000000     2.094000000
C     3.925000000     2.665000000     3.679000000
O     5.157000000     3.050000000     3.379000000
C     3.735000000     1.819000000     4.755000000
H     4.610000000     1.439000000     5.277000000
C     2.466000000     1.386000000     5.080000000
O     2.406000000     0.451000000     6.081000000
C     1.223000000    -0.085000000     6.563000000
C     0.834000000    -1.362000000     6.174000000
H     1.381000000    -1.857000000     5.376000000
C     0.650000000     0.522000000     7.607000000
H     0.974000000     1.468000000     8.031000000
C    -0.514000000    -0.014000000     8.170000000
H    -0.882000000     0.510000000     9.048000000
C    -0.959000000    -1.246000000     7.736000000
H    -1.866000000    -1.685000000     8.144000000
C    -0.307000000    -1.922000000     6.711000000
O    -0.791000000    -3.163000000     6.233000000
C    -1.481000000    -3.440000000     5.064000000
C    -1.443000000    -4.714000000     4.505000000
H    -1.040000000    -5.563000000     5.050000000
C    -1.950000000    -4.982000000     3.261000000
O    -1.975000000    -6.305000000     2.881000000
C    -2.163000000    -6.645000000     1.580000000
C    -1.226000000    -6.325000000     0.643000000
H    -0.332000000    -5.908000000     1.099000000
C    -3.434000000    -7.149000000     1.104000000
H    -4.278000000    -7.253000000     1.781000000
C    -3.549000000    -7.505000000    -0.248000000
H    -4.538000000    -7.749000000    -0.627000000
C    -2.449000000    -7.444000000    -1.093000000
H    -2.511000000    -7.807000000    -2.116000000
C    -1.350000000    -6.731000000    -0.665000000
O    -0.254000000    -6.447000000    -1.457000000
C    -0.208000000    -5.401000000    -2.341000000
C     0.856000000    -5.544000000    -3.233000000
H     1.460000000    -6.445000000    -3.157000000
C     1.020000000    -4.569000000    -4.209000000
O     2.106000000    -4.505000000    -5.038000000
C     3.025000000    -3.446000000    -5.020000000
C     3.337000000    -2.690000000    -3.901000000
H     2.865000000    -2.890000000    -2.943000000
C     3.757000000    -3.252000000    -6.190000000
H     3.518000000    -3.832000000    -7.078000000
C     4.675000000    -2.204000000    -6.307000000
H     5.312000000    -1.986000000    -7.161000000
C     4.992000000    -1.523000000    -5.160000000
H     5.721000000    -0.717000000    -5.150000000
C     4.314000000    -1.720000000    -3.994000000
O     4.653000000    -1.020000000    -2.898000000
C     4.490000000     0.334000000    -2.775000000
C     5.473000000     1.077000000    -2.079000000
H     6.414000000     0.613000000    -1.795000000
C     5.211000000     2.470000000    -1.836000000
O     6.228000000     3.146000000    -1.150000000
C     6.103000000     3.791000000    -0.024000000
C     6.137000000     5.229000000     0.037000000
H     6.442000000     5.814000000    -0.827000000
C     5.861000000     5.905000000     1.212000000
H     6.022000000     6.980000000     1.215000000
C     5.679000000     5.226000000     2.382000000
H     5.552000000     5.857000000     3.258000000
C     5.577000000     3.816000000     2.328000000
C     5.873000000     3.094000000     1.147000000
H     5.684000000     2.028000000     1.049000000
C     0.685000000    -2.208000000     1.701000000
H     0.899000000    -2.746000000     2.621000000
C     0.018000000    -0.964000000     1.828000000
H    -0.343000000    -0.643000000     2.802000000
C    -0.054000000    -0.142000000     0.721000000
H    -0.494000000     0.875000000     0.858000000
C     0.399000000    -0.520000000    -0.466000000
H     0.373000000     0.203000000    -1.277000000
C     1.132000000    -1.716000000    -0.555000000
H     1.564000000    -1.929000000    -1.530000000
C     1.289000000    -2.625000000     0.513000000
C     2.078000000    -3.883000000     0.324000000
O     2.892000000    -3.938000000    -0.553000000
O     1.838000000    -4.781000000     1.044000000
O     2.030000000    -4.622000000     5.625000000
H     1.136000000    -4.292000000     5.532000000
H     2.177000000    -4.649000000     6.571000000
O     6.631000000    -4.962000000     3.199000000
H     6.072000000    -4.740000000     2.453000000
H     6.087000000    -5.530000000     3.744000000
O     1.250000000    -9.313000000    -1.736000000
H     1.733000000    -8.546000000    -1.430000000
H     0.331000000    -9.099000000    -1.572000000
O     4.243000000    -1.697000000    -0.306000000
H     4.328000000    -1.309000000    -1.177000000
H     3.670000000    -2.453000000    -0.435000000
O     2.225000000    -6.122000000     3.092000000
H     1.825000000    -5.717000000     3.861000000
H     1.930000000    -5.585000000     2.357000000
O     3.466000000    -1.980000000     3.487000000
H     3.352000000    -1.187000000     2.962000000
H     3.941000000    -2.581000000     2.914000000
O     2.496000000    -7.294000000    -0.600000000
H     3.062000000    -6.841000000    -1.225000000
H     2.251000000    -6.619000000     0.034000000
O     4.280000000    -1.958000000     6.303000000
H     3.887000000    -2.095000000     5.441000000
H     4.936000000    -1.276000000     6.161000000
O     4.605000000    -5.451000000     4.863000000
H     4.955000000    -4.976000000     5.618000000
H     3.726000000    -5.093000000     4.742000000
O     4.915000000    -5.301000000    -2.041000000
H     4.412000000    -4.616000000    -1.602000000
H     5.359000000    -5.765000000    -1.331000000
O     4.904000000    -6.288000000    -4.553000000
H     4.489000000    -5.495000000    -4.894000000
H     4.676000000    -6.296000000    -3.623000000
O     5.470000000    -8.333000000     0.797000000
H     5.540000000    -8.462000000    -0.149000000
H     4.929000000    -7.549000000     0.893000000
O     7.126000000    -5.823000000    -0.523000000
H     7.311000000    -6.318000000     0.274000000
H     7.041000000    -6.489000000    -1.205000000
O     4.385000000    -5.893000000     1.362000000
H     3.679000000    -5.446000000     0.895000000
H     3.988000000    -6.173000000     2.186000000
O     6.650000000    -0.623000000     2.274000000
H     7.405000000    -1.167000000     2.051000000
H     5.931000000    -0.987000000     1.759000000
O     6.588000000    -3.152000000     0.524000000
H     6.710000000    -4.066000000     0.267000000
H     6.030000000    -2.783000000    -0.161000000
O     3.212000000    -0.030000000     1.580000000
H     2.361000000    -0.468000000     1.562000000
H     3.643000000    -0.311000000     0.773000000
O     2.204000000    -8.906000000     2.788000000
H     2.110000000    -8.969000000     1.837000000
H     2.273000000    -7.966000000     2.959000000
O     7.564000000    -3.863000000    -3.400000000
H     7.671000000    -3.084000000    -2.854000000
H     6.836000000    -4.338000000    -2.998000000
