215
-1463.28918
C     1.445000000     3.108000000    -3.711000000
H     1.386000000     2.237000000    -4.358000000
C     2.268000000     3.144000000    -2.583000000
C     2.353000000     4.383000000    -1.878000000
H     3.083000000     4.461000000    -1.076000000
C     3.162000000     1.975000000    -2.150000000
O     3.518000000     1.130000000    -3.316000000
H     2.506000000     1.401000000    -1.480000000
O     4.347000000     2.278000000    -1.373000000
C     4.459000000     1.568000000    -0.217000000
C     4.150000000     2.102000000     1.005000000
H     3.825000000     3.135000000     1.102000000
C     4.045000000     1.324000000     2.114000000
O     3.606000000     1.855000000     3.216000000
C     4.531000000    -0.048000000     2.021000000
C     4.460000000    -0.902000000     3.257000000
H     5.220000000    -1.686000000     3.278000000
C     3.101000000    -1.511000000     3.431000000
C     2.853000000    -2.751000000     2.851000000
H     3.659000000    -3.229000000     2.300000000
H     4.748000000    -0.360000000     4.161000000
C     4.913000000    -0.559000000     0.828000000
H     5.269000000    -1.581000000     0.921000000
C     4.853000000     0.236000000    -0.314000000
C     5.287000000    -0.397000000    -1.602000000
H     5.965000000    -1.195000000    -1.294000000
H     5.916000000     0.205000000    -2.263000000
C     4.128000000    -1.007000000    -2.444000000
C     3.802000000    -2.372000000    -2.412000000
H     4.349000000    -3.061000000    -1.774000000
C     3.270000000    -0.195000000    -3.149000000
C     2.093000000    -0.646000000    -3.702000000
H     1.347000000     0.081000000    -4.012000000
C     1.763000000    -2.009000000    -3.597000000
O     0.537000000    -2.410000000    -4.161000000
C    -0.605000000    -2.692000000    -3.331000000
C    -1.890000000    -2.251000000    -3.935000000
C    -3.140000000    -2.827000000    -3.523000000
H    -3.198000000    -3.598000000    -2.758000000
C    -1.881000000    -1.046000000    -4.734000000
H    -0.920000000    -0.645000000    -5.046000000
O    -0.451000000    -4.075000000    -3.036000000
H    -0.582000000    -2.233000000    -2.331000000
C     2.634000000    -2.879000000    -2.958000000
C     2.309000000    -4.309000000    -2.669000000
H     3.169000000    -4.905000000    -2.358000000
H     2.022000000    -4.894000000    -3.545000000
C     1.296000000    -4.567000000    -1.551000000
C     1.706000000    -4.706000000    -0.206000000
H     2.758000000    -4.814000000     0.043000000
C    -0.056000000    -4.407000000    -1.788000000
C    -1.005000000    -4.411000000    -0.722000000
H    -2.058000000    -4.311000000    -0.975000000
C    -0.564000000    -4.487000000     0.601000000
O    -1.453000000    -4.359000000     1.595000000
C    -1.607000000    -3.101000000     2.358000000
C    -3.064000000    -2.801000000     2.700000000
C    -4.101000000    -3.101000000     1.846000000
H    -3.840000000    -3.629000000     0.932000000
C    -3.413000000    -2.113000000     3.851000000
H    -2.611000000    -1.777000000     4.504000000
O    -0.769000000    -3.073000000     3.601000000
H    -1.186000000    -2.391000000     1.631000000
C     0.803000000    -4.657000000     0.836000000
C     1.361000000    -4.713000000     2.234000000
H     2.338000000    -5.178000000     2.088000000
H     0.764000000    -5.369000000     2.872000000
C     1.609000000    -3.380000000     2.944000000
C     0.564000000    -2.604000000     3.549000000
C     0.832000000    -1.406000000     4.135000000
H     0.035000000    -0.845000000     4.616000000
C     2.067000000    -0.827000000     4.065000000
O     2.201000000     0.478000000     4.511000000
C     2.254000000     1.459000000     3.462000000
H     1.833000000     1.071000000     2.523000000
C     1.332000000     2.643000000     3.781000000
C     1.718000000     3.930000000     3.507000000
H     2.659000000     4.103000000     2.990000000
C     0.037000000     2.401000000     4.206000000
H    -0.164000000     1.343000000     4.356000000
C    -0.870000000     3.440000000     4.436000000
O    -2.201000000     3.211000000     4.699000000
C    -0.485000000     4.763000000     4.198000000
H    -1.191000000     5.583000000     4.302000000
C     0.804000000     4.957000000     3.658000000
O     1.213000000     6.247000000     3.364000000
C     2.005000000     6.502000000     2.230000000
C     1.440000000     6.370000000     0.976000000
H     0.405000000     6.039000000     0.940000000
C     3.354000000     6.821000000     2.306000000
H     3.716000000     6.955000000     3.322000000
C     4.145000000     7.149000000     1.202000000
H     5.146000000     7.532000000     1.379000000
C     3.581000000     7.144000000    -0.055000000
H     4.107000000     7.398000000    -0.973000000
C     2.203000000     6.731000000    -0.137000000
O     1.639000000     6.685000000    -1.354000000
C     1.494000000     5.479000000    -2.103000000
C     0.592000000     5.378000000    -3.236000000
H    -0.157000000     6.133000000    -3.463000000
C     0.665000000     4.239000000    -4.066000000
O    -0.177000000     4.246000000    -5.183000000
C    -0.515000000     3.166000000    -5.993000000
C    -1.614000000     2.447000000    -5.573000000
H    -2.027000000     2.738000000    -4.611000000
C     0.216000000     2.848000000    -7.110000000
H     1.002000000     3.570000000    -7.315000000
C    -0.167000000     1.708000000    -7.888000000
H     0.351000000     1.378000000    -8.785000000
C    -1.270000000     0.990000000    -7.478000000
H    -1.594000000     0.107000000    -8.024000000
C    -2.053000000     1.378000000    -6.377000000
O    -3.052000000     0.721000000    -5.819000000
C    -3.049000000    -0.479000000    -5.183000000
C    -4.209000000    -1.090000000    -4.761000000
H    -5.103000000    -0.487000000    -4.901000000
C    -4.329000000    -2.272000000    -3.999000000
O    -5.575000000    -2.757000000    -3.636000000
C    -5.881000000    -3.348000000    -2.490000000
C    -6.051000000    -2.682000000    -1.249000000
H    -6.033000000    -1.600000000    -1.143000000
C    -6.051000000    -4.733000000    -2.496000000
H    -5.839000000    -5.294000000    -3.402000000
C    -6.214000000    -5.483000000    -1.332000000
H    -6.236000000    -6.564000000    -1.447000000
C    -6.322000000    -4.806000000    -0.088000000
H    -6.658000000    -5.272000000     0.835000000
C    -6.286000000    -3.411000000    -0.096000000
O    -6.420000000    -2.809000000     1.106000000
C    -5.393000000    -2.608000000     2.018000000
C    -5.688000000    -1.825000000     3.096000000
H    -6.686000000    -1.394000000     3.076000000
C    -4.705000000    -1.546000000     3.994000000
O    -5.013000000    -0.648000000     4.978000000
C    -4.006000000     0.090000000     5.576000000
C    -3.432000000    -0.269000000     6.768000000
H    -3.711000000    -1.136000000     7.363000000
C    -2.375000000     0.560000000     7.280000000
H    -1.858000000     0.263000000     8.189000000
C    -2.004000000     1.702000000     6.585000000
H    -1.190000000     2.267000000     7.030000000
C    -2.621000000     2.123000000     5.428000000
C    -3.609000000     1.233000000     4.952000000
H    -4.099000000     1.412000000     3.999000000
C    -2.131000000     0.721000000    -1.109000000
H    -2.991000000     0.268000000    -1.595000000
C    -1.223000000    -0.065000000    -0.383000000
H    -1.344000000    -1.145000000    -0.395000000
C    -0.150000000     0.518000000     0.243000000
H     0.677000000    -0.018000000     0.819000000
C     0.136000000     1.849000000    -0.028000000
H     0.979000000     2.305000000     0.486000000
C    -0.793000000     2.659000000    -0.711000000
H    -0.433000000     3.663000000    -0.922000000
C    -1.953000000     2.083000000    -1.270000000
C    -2.987000000     2.851000000    -2.046000000
O    -2.791000000     4.004000000    -2.318000000
O    -3.957000000     2.296000000    -2.510000000
O    -8.965000000     4.363000000    -4.386000000
H    -9.100000000     5.298000000    -4.538000000
H    -8.194000000     4.322000000    -3.820000000
O    -2.008000000     6.388000000     1.823000000
H    -1.911000000     6.508000000     0.878000000
H    -2.944000000     6.233000000     1.950000000
O    -7.012000000     5.724000000     0.359000000
H    -6.323000000     5.635000000    -0.299000000
H    -7.144000000     4.835000000     0.689000000
O    -7.200000000     3.135000000     1.230000000
H    -7.956000000     2.822000000     0.734000000
H    -6.443000000     2.843000000     0.721000000
O    -3.803000000     7.811000000    -2.236000000
H    -3.513000000     7.425000000    -3.063000000
H    -4.722000000     8.031000000    -2.383000000
O    -2.937000000     3.406000000     1.637000000
H    -2.592000000     2.964000000     2.412000000
H    -2.287000000     4.079000000     1.436000000
O    -1.665000000     5.997000000    -0.816000000
H    -2.141000000     5.323000000    -1.301000000
H    -1.080000000     6.391000000    -1.463000000
O    -5.879000000     2.179000000    -6.039000000
H    -6.646000000     2.123000000    -5.469000000
H    -5.957000000     1.422000000    -6.619000000
O    -4.852000000     6.098000000     2.757000000
H    -5.433000000     6.043000000     1.998000000
H    -4.934000000     5.245000000     3.184000000
O    -5.490000000     7.189000000    -5.211000000
H    -4.622000000     6.838000000    -5.015000000
H    -5.957000000     6.459000000    -5.620000000
O    -9.118000000     3.339000000    -0.802000000
H    -9.665000000     2.842000000    -1.410000000
H    -8.303000000     3.489000000    -1.280000000
O    -5.037000000     2.047000000     0.231000000
H    -4.275000000     2.120000000     0.806000000
H    -4.739000000     2.399000000    -0.608000000
O    -3.476000000     4.517000000    -7.271000000
H    -4.233000000     5.081000000    -7.115000000
H    -3.046000000     4.452000000    -6.418000000
O    -6.719000000     3.454000000    -2.276000000
H    -6.809000000     2.532000000    -2.519000000
H    -5.777000000     3.619000000    -2.310000000
O    -4.650000000     5.459000000    -1.106000000
H    -4.051000000     4.912000000    -1.614000000
H    -4.289000000     6.342000000    -1.179000000
O    -2.803000000     6.368000000    -4.337000000
H    -2.966000000     5.427000000    -4.264000000
H    -2.384000000     6.473000000    -5.191000000
O    -8.406000000     0.034000000    -3.114000000
H    -7.508000000    -0.267000000    -2.974000000
H    -8.821000000    -0.044000000    -2.255000000
O    -5.752000000     0.572000000    -2.202000000
H    -5.136000000     1.289000000    -2.353000000
H    -5.969000000     0.634000000    -1.272000000
O    -4.482000000     3.894000000    -4.641000000
H    -4.135000000     3.462000000    -3.861000000
H    -4.843000000     3.182000000    -5.169000000
