215
-1437.04170
C    -2.021000000    -3.740000000     2.352000000
H    -2.473000000    -4.036000000     1.409000000
C    -2.483000000    -2.507000000     2.937000000
C    -1.951000000    -2.147000000     4.209000000
H    -2.180000000    -1.192000000     4.675000000
C    -3.307000000    -1.532000000     2.073000000
O    -4.389000000    -2.157000000     1.272000000
H    -2.646000000    -1.125000000     1.294000000
O    -3.820000000    -0.507000000     2.878000000
C    -3.669000000     0.741000000     2.408000000
C    -2.653000000     1.543000000     2.911000000
H    -1.901000000     1.265000000     3.646000000
C    -2.413000000     2.835000000     2.514000000
O    -1.411000000     3.533000000     3.150000000
C    -3.119000000     3.277000000     1.432000000
C    -2.821000000     4.630000000     0.814000000
H    -3.648000000     5.158000000     0.336000000
C    -1.679000000     4.618000000    -0.143000000
C    -1.893000000     4.312000000    -1.498000000
H    -2.913000000     4.306000000    -1.874000000
H    -2.610000000     5.293000000     1.656000000
C    -4.142000000     2.520000000     0.871000000
H    -4.592000000     2.809000000    -0.076000000
C    -4.471000000     1.270000000     1.343000000
C    -5.528000000     0.506000000     0.688000000
H    -6.212000000     1.183000000     0.171000000
H    -6.164000000    -0.005000000     1.413000000
C    -4.927000000    -0.497000000    -0.334000000
C    -4.774000000    -0.064000000    -1.683000000
H    -5.077000000     0.952000000    -1.921000000
C    -4.509000000    -1.811000000    -0.026000000
C    -3.853000000    -2.638000000    -1.021000000
H    -3.539000000    -3.659000000    -0.817000000
C    -3.831000000    -2.149000000    -2.334000000
O    -3.007000000    -2.917000000    -3.216000000
C    -1.592000000    -2.573000000    -3.259000000
C    -0.665000000    -3.768000000    -3.206000000
C     0.662000000    -3.588000000    -3.652000000
H     1.075000000    -2.689000000    -4.102000000
C    -0.996000000    -5.003000000    -2.568000000
H    -1.979000000    -5.190000000    -2.143000000
O    -1.192000000    -1.807000000    -4.459000000
H    -1.535000000    -1.975000000    -2.337000000
C    -4.212000000    -0.874000000    -2.695000000
C    -3.977000000    -0.382000000    -4.119000000
H    -4.766000000     0.245000000    -4.539000000
H    -3.858000000    -1.152000000    -4.884000000
C    -2.561000000     0.271000000    -4.148000000
C    -2.430000000     1.644000000    -4.013000000
H    -3.265000000     2.306000000    -3.801000000
C    -1.344000000    -0.439000000    -4.429000000
C    -0.127000000     0.123000000    -4.491000000
H     0.737000000    -0.537000000    -4.519000000
C    -0.015000000     1.487000000    -4.276000000
O     1.263000000     2.001000000    -4.176000000
C     1.804000000     2.474000000    -2.960000000
C     3.255000000     2.113000000    -2.664000000
C     3.918000000     1.204000000    -3.437000000
H     3.374000000     0.764000000    -4.269000000
C     3.883000000     2.565000000    -1.517000000
H     3.426000000     3.249000000    -0.807000000
O     1.543000000     3.895000000    -2.673000000
H     1.296000000     1.810000000    -2.245000000
C    -1.128000000     2.290000000    -4.078000000
C    -1.111000000     3.817000000    -3.819000000
H    -2.081000000     4.225000000    -4.108000000
H    -0.337000000     4.253000000    -4.454000000
C    -0.835000000     4.162000000    -2.368000000
C     0.487000000     4.134000000    -1.881000000
C     0.699000000     4.425000000    -0.512000000
H     1.739000000     4.429000000    -0.199000000
C    -0.377000000     4.589000000     0.300000000
O    -0.053000000     4.754000000     1.655000000
C    -0.182000000     3.556000000     2.413000000
H    -0.170000000     2.718000000     1.701000000
C     0.994000000     3.512000000     3.392000000
C     0.949000000     2.653000000     4.404000000
H     0.104000000     1.973000000     4.329000000
C     2.055000000     4.386000000     3.293000000
H     2.072000000     5.158000000     2.528000000
C     3.186000000     4.179000000     4.093000000
O     4.357000000     4.799000000     3.911000000
C     3.173000000     3.147000000     5.114000000
H     4.104000000     2.901000000     5.618000000
C     2.058000000     2.440000000     5.258000000
O     2.060000000     1.387000000     6.117000000
C     0.930000000     0.706000000     6.410000000
C     0.806000000    -0.629000000     6.041000000
H     1.635000000    -1.087000000     5.508000000
C     0.043000000     1.338000000     7.295000000
H     0.167000000     2.365000000     7.630000000
C    -1.156000000     0.695000000     7.599000000
H    -1.906000000     1.187000000     8.214000000
C    -1.328000000    -0.609000000     7.159000000
H    -2.225000000    -1.197000000     7.338000000
C    -0.319000000    -1.321000000     6.471000000
O    -0.515000000    -2.630000000     6.110000000
C    -0.982000000    -2.947000000     4.870000000
C    -0.623000000    -4.102000000     4.334000000
H    -0.031000000    -4.723000000     5.002000000
C    -1.187000000    -4.554000000     3.107000000
O    -0.908000000    -5.866000000     2.634000000
C    -1.522000000    -6.449000000     1.624000000
C    -0.836000000    -6.424000000     0.411000000
H     0.070000000    -5.838000000     0.287000000
C    -2.670000000    -7.250000000     1.781000000
H    -3.302000000    -7.285000000     2.664000000
C    -3.091000000    -8.039000000     0.644000000
H    -3.885000000    -8.781000000     0.678000000
C    -2.449000000    -7.841000000    -0.567000000
H    -2.873000000    -8.436000000    -1.372000000
C    -1.285000000    -7.215000000    -0.634000000
O    -0.596000000    -7.225000000    -1.850000000
C    -0.129000000    -6.070000000    -2.485000000
C     1.111000000    -5.871000000    -2.940000000
H     1.871000000    -6.627000000    -2.763000000
C     1.523000000    -4.661000000    -3.537000000
O     2.855000000    -4.538000000    -3.869000000
C     3.353000000    -3.445000000    -4.498000000
C     4.277000000    -2.600000000    -3.806000000
H     4.434000000    -2.755000000    -2.741000000
C     3.132000000    -3.210000000    -5.838000000
H     2.513000000    -3.929000000    -6.368000000
C     3.721000000    -2.138000000    -6.556000000
H     3.498000000    -2.013000000    -7.612000000
C     4.511000000    -1.233000000    -5.825000000
H     4.920000000    -0.367000000    -6.340000000
C     4.688000000    -1.407000000    -4.437000000
O     5.539000000    -0.540000000    -3.755000000
C     5.078000000     0.622000000    -3.091000000
C     5.724000000     1.048000000    -1.924000000
H     6.567000000     0.517000000    -1.488000000
C     5.160000000     2.080000000    -1.149000000
O     5.791000000     2.483000000     0.006000000
C     5.636000000     3.695000000     0.581000000
C     6.168000000     4.926000000     0.202000000
H     6.793000000     5.024000000    -0.683000000
C     6.129000000     6.050000000     1.045000000
H     6.645000000     6.955000000     0.736000000
C     5.524000000     5.969000000     2.281000000
H     5.411000000     6.889000000     2.849000000
C     4.928000000     4.787000000     2.687000000
C     5.060000000     3.652000000     1.841000000
H     4.777000000     2.713000000     2.311000000
C     0.816000000    -1.707000000     1.985000000
H     0.937000000    -2.032000000     3.015000000
C     0.069000000    -0.593000000     1.616000000
H    -0.418000000     0.014000000     2.374000000
C    -0.094000000    -0.206000000     0.306000000
H    -0.609000000     0.755000000     0.104000000
C     0.507000000    -1.004000000    -0.701000000
H     0.383000000    -0.741000000    -1.748000000
C     1.200000000    -2.118000000    -0.369000000
H     1.452000000    -2.874000000    -1.108000000
C     1.261000000    -2.529000000     0.962000000
C     1.990000000    -3.841000000     1.313000000
O     2.614000000    -4.415000000     0.416000000
O     2.244000000    -4.171000000     2.443000000
O     5.076000000     0.672000000     4.738000000
H     5.903000000     0.852000000     4.291000000
H     4.590000000     0.116000000     4.128000000
O     3.232000000    -3.168000000     4.604000000
H     2.639000000    -3.498000000     3.929000000
H     4.090000000    -3.149000000     4.180000000
O     2.375000000    -4.928000000     6.368000000
H     2.222000000    -4.204000000     6.975000000
H     2.839000000    -4.528000000     5.631000000
O     3.084000000    -9.123000000     3.016000000
H     2.671000000    -9.176000000     2.154000000
H     2.884000000    -8.238000000     3.324000000
O     7.111000000     0.215000000     3.083000000
H     7.853000000    -0.371000000     3.232000000
H     6.703000000    -0.114000000     2.282000000
O     2.237000000    -6.586000000     3.913000000
H     1.591000000    -6.440000000     4.603000000
H     2.098000000    -5.866000000     3.298000000
O     4.895000000    -3.343000000    -0.285000000
H     3.994000000    -3.433000000     0.025000000
H     5.267000000    -4.221000000    -0.197000000
O     4.977000000    -8.592000000    -1.836000000
H     4.837000000    -8.993000000    -0.979000000
H     4.615000000    -7.710000000    -1.750000000
O     6.521000000    -7.537000000     1.736000000
H     6.484000000    -6.668000000     2.135000000
H     7.255000000    -7.970000000     2.171000000
O     5.170000000    -5.991000000     5.097000000
H     4.520000000    -5.540000000     4.558000000
H     6.003000000    -5.832000000     4.652000000
O     6.940000000    -1.530000000     0.638000000
H     7.380000000    -2.213000000     1.144000000
H     6.214000000    -1.982000000     0.208000000
O     4.719000000    -5.333000000     2.248000000
H     4.724000000    -6.116000000     1.697000000
H     3.835000000    -4.978000000     2.152000000
O     5.936000000    -3.165000000     3.511000000
H     6.071000000    -2.458000000     2.880000000
H     5.790000000    -3.943000000     2.973000000
O     6.831000000    -5.994000000    -0.944000000
H     6.012000000    -6.154000000    -1.412000000
H     6.833000000    -6.640000000    -0.237000000
O     3.408000000    -0.577000000     1.307000000
H     2.471000000    -0.765000000     1.249000000
H     3.751000000    -0.808000000     0.444000000
O     1.515000000    -8.498000000     0.414000000
H     1.584000000    -8.890000000    -0.456000000
H     0.578000000    -8.509000000     0.609000000
O    -0.228000000    -9.179000000     3.282000000
H    -0.766000000    -9.278000000     4.067000000
H    -0.327000000    -8.259000000     3.038000000
O     5.830000000    -2.410000000     6.571000000
H     5.973000000    -1.663000000     5.990000000
H     4.932000000    -2.687000000     6.389000000
O     3.662000000    -6.708000000    -0.457000000
H     3.258000000    -7.312000000     0.167000000
H     3.268000000    -5.859000000    -0.258000000
