215
-1450.72104
C    -3.202000000    -2.984000000     3.389000000
H    -3.618000000    -3.296000000     2.435000000
C    -3.178000000    -1.679000000     3.738000000
C    -2.520000000    -1.268000000     4.874000000
H    -2.442000000    -0.203000000     5.074000000
C    -3.639000000    -0.625000000     2.716000000
O    -4.672000000    -1.139000000     1.926000000
H    -2.788000000    -0.396000000     2.058000000
O    -3.972000000     0.566000000     3.415000000
C    -3.621000000     1.700000000     2.740000000
C    -2.458000000     2.344000000     3.170000000
H    -1.999000000     1.970000000     4.081000000
C    -1.984000000     3.450000000     2.499000000
O    -0.723000000     3.929000000     2.831000000
C    -2.638000000     3.889000000     1.360000000
C    -2.060000000     5.074000000     0.554000000
H    -2.886000000     5.602000000     0.073000000
C    -1.072000000     4.737000000    -0.496000000
C    -1.405000000     4.403000000    -1.839000000
H    -2.464000000     4.386000000    -2.084000000
H    -1.663000000     5.826000000     1.238000000
C    -3.753000000     3.147000000     0.849000000
H    -4.261000000     3.594000000    -0.002000000
C    -4.259000000     2.140000000     1.561000000
C    -5.466000000     1.372000000     0.985000000
H    -6.105000000     2.051000000     0.417000000
H    -6.103000000     0.953000000     1.767000000
C    -5.078000000     0.205000000     0.033000000
C    -4.870000000     0.410000000    -1.345000000
H    -5.205000000     1.309000000    -1.855000000
C    -4.689000000    -1.004000000     0.589000000
C    -3.965000000    -1.922000000    -0.162000000
H    -3.471000000    -2.791000000     0.264000000
C    -3.834000000    -1.730000000    -1.524000000
O    -3.184000000    -2.709000000    -2.256000000
C    -1.847000000    -2.515000000    -2.750000000
C    -0.965000000    -3.696000000    -2.597000000
C     0.233000000    -3.797000000    -3.363000000
H     0.369000000    -2.993000000    -4.082000000
C    -1.115000000    -4.568000000    -1.515000000
H    -1.943000000    -4.462000000    -0.818000000
O    -1.780000000    -1.988000000    -4.081000000
H    -1.418000000    -1.754000000    -2.081000000
C    -4.304000000    -0.597000000    -2.144000000
C    -4.049000000    -0.334000000    -3.676000000
H    -4.767000000     0.418000000    -4.010000000
H    -4.243000000    -1.204000000    -4.306000000
C    -2.701000000     0.292000000    -3.894000000
C    -2.455000000     1.670000000    -4.032000000
H    -3.299000000     2.312000000    -3.791000000
C    -1.679000000    -0.604000000    -4.246000000
C    -0.462000000    -0.088000000    -4.576000000
H     0.259000000    -0.840000000    -4.884000000
C    -0.175000000     1.256000000    -4.623000000
O     1.173000000     1.583000000    -4.754000000
C     1.822000000     1.845000000    -3.456000000
C     3.268000000     1.331000000    -3.355000000
C     3.773000000     0.449000000    -4.280000000
H     3.140000000     0.146000000    -5.110000000
C     3.979000000     1.596000000    -2.256000000
H     3.540000000     2.169000000    -1.443000000
O     1.840000000     3.198000000    -3.185000000
H     1.250000000     1.316000000    -2.679000000
C    -1.213000000     2.157000000    -4.352000000
C    -0.975000000     3.630000000    -4.179000000
H    -1.842000000     4.269000000    -4.361000000
H    -0.194000000     3.879000000    -4.901000000
C    -0.494000000     3.936000000    -2.796000000
C     0.846000000     3.773000000    -2.388000000
C     1.163000000     4.042000000    -1.063000000
H     2.195000000     3.827000000    -0.796000000
C     0.226000000     4.497000000    -0.140000000
O     0.705000000     4.623000000     1.168000000
C     0.468000000     3.538000000     2.041000000
H     0.276000000     2.630000000     1.451000000
C     1.716000000     3.270000000     2.897000000
C     1.550000000     2.448000000     4.047000000
H     0.601000000     1.981000000     4.297000000
C     2.953000000     3.735000000     2.552000000
H     3.176000000     4.306000000     1.655000000
C     4.052000000     3.537000000     3.413000000
O     5.287000000     3.996000000     2.978000000
C     3.880000000     2.683000000     4.538000000
H     4.725000000     2.285000000     5.096000000
C     2.641000000     2.134000000     4.837000000
O     2.441000000     1.220000000     5.778000000
C     1.188000000     0.971000000     6.393000000
C     0.742000000    -0.350000000     6.284000000
H     1.193000000    -1.067000000     5.603000000
C     0.598000000     1.951000000     7.111000000
H     0.997000000     2.959000000     7.199000000
C    -0.679000000     1.711000000     7.613000000
H    -1.170000000     2.570000000     8.065000000
C    -1.178000000     0.385000000     7.539000000
H    -2.234000000     0.237000000     7.752000000
C    -0.520000000    -0.633000000     6.893000000
O    -1.114000000    -1.895000000     6.781000000
C    -1.946000000    -2.229000000     5.674000000
C    -1.994000000    -3.574000000     5.327000000
H    -1.511000000    -4.349000000     5.917000000
C    -2.672000000    -3.937000000     4.184000000
O    -2.829000000    -5.312000000     3.890000000
C    -2.672000000    -5.868000000     2.651000000
C    -1.428000000    -5.792000000     1.928000000
H    -0.582000000    -5.166000000     2.203000000
C    -3.760000000    -6.608000000     2.126000000
H    -4.611000000    -6.550000000     2.799000000
C    -3.612000000    -7.383000000     0.939000000
H    -4.419000000    -8.042000000     0.629000000
C    -2.375000000    -7.267000000     0.259000000
H    -2.199000000    -7.799000000    -0.673000000
C    -1.361000000    -6.416000000     0.693000000
O    -0.213000000    -6.252000000    -0.057000000
C    -0.129000000    -5.510000000    -1.207000000
C     1.046000000    -5.584000000    -1.931000000
H     1.747000000    -6.374000000    -1.673000000
C     1.217000000    -4.783000000    -3.043000000
O     2.408000000    -4.803000000    -3.638000000
C     2.837000000    -3.977000000    -4.600000000
C     3.702000000    -2.989000000    -4.254000000
H     3.922000000    -2.938000000    -3.191000000
C     2.474000000    -4.276000000    -5.905000000
H     1.818000000    -5.070000000    -6.249000000
C     3.167000000    -3.588000000    -6.894000000
H     2.981000000    -3.739000000    -7.954000000
C     4.106000000    -2.560000000    -6.558000000
H     4.614000000    -2.121000000    -7.413000000
C     4.333000000    -2.244000000    -5.227000000
O     5.254000000    -1.338000000    -4.833000000
C     4.945000000    -0.232000000    -4.087000000
C     5.830000000     0.067000000    -3.001000000
H     6.746000000    -0.460000000    -2.749000000
C     5.279000000     1.006000000    -2.094000000
O     6.066000000     1.197000000    -0.935000000
C     6.088000000     2.398000000    -0.252000000
C     6.724000000     3.511000000    -0.911000000
H     7.025000000     3.408000000    -1.951000000
C     6.800000000     4.776000000    -0.198000000
H     7.315000000     5.568000000    -0.737000000
C     6.402000000     4.852000000     1.095000000
H     6.583000000     5.809000000     1.578000000
C     5.817000000     3.739000000     1.734000000
C     5.588000000     2.537000000     1.028000000
H     5.208000000     1.627000000     1.484000000
C     0.351000000    -1.963000000     1.430000000
H    -0.232000000    -2.144000000     2.329000000
C     0.035000000    -0.887000000     0.668000000
H    -0.775000000    -0.249000000     1.011000000
C     0.797000000    -0.685000000    -0.472000000
H     0.512000000     0.078000000    -1.181000000
C     1.845000000    -1.592000000    -0.846000000
H     2.441000000    -1.333000000    -1.718000000
C     2.158000000    -2.632000000     0.044000000
H     2.999000000    -3.299000000    -0.122000000
C     1.413000000    -2.806000000     1.201000000
C     1.732000000    -3.976000000     2.152000000
O     2.702000000    -4.692000000     1.865000000
O     1.303000000    -3.966000000     3.288000000
O     5.185000000    -0.108000000     3.142000000
H     5.236000000    -0.630000000     3.943000000
H     4.247000000     0.004000000     2.988000000
O     7.450000000    -4.993000000     2.169000000
H     7.956000000    -4.333000000     2.643000000
H     6.559000000    -4.643000000     2.149000000
O     3.065000000    -3.952000000     5.344000000
H     2.354000000    -3.875000000     4.707000000
H     3.086000000    -4.883000000     5.568000000
O     3.605000000    -9.852000000     4.267000000
H     4.152000000    -9.968000000     5.044000000
H     3.241000000    -8.972000000     4.361000000
O     6.754000000    -7.228000000     4.117000000
H     6.045000000    -7.581000000     3.581000000
H     7.273000000    -6.699000000     3.511000000
O    -0.876000000    -8.361000000     4.936000000
H    -0.171000000    -8.909000000     5.281000000
H    -0.543000000    -7.467000000     5.012000000
O     4.999000000    -3.615000000     2.620000000
H     4.856000000    -3.842000000     3.538000000
H     4.218000000    -3.936000000     2.169000000
O     3.739000000    -7.074000000     6.788000000
H     3.779000000    -6.730000000     7.681000000
H     3.395000000    -7.961000000     6.889000000
O     4.658000000    -7.906000000     2.460000000
H     4.064000000    -7.328000000     2.940000000
H     4.692000000    -7.536000000     1.578000000
O     6.558000000    -1.899000000     1.324000000
H     6.168000000    -2.386000000     2.051000000
H     6.056000000    -1.085000000     1.285000000
O     7.155000000    -3.691000000    -0.671000000
H     6.393000000    -4.264000000    -0.589000000
H     7.129000000    -3.143000000     0.113000000
O     1.803000000    -7.112000000     2.658000000
H     2.042000000    -6.292000000     2.226000000
H     1.147000000    -6.859000000     3.307000000
O     4.622000000    -5.439000000    -2.408000000
H     3.820000000    -5.430000000    -2.931000000
H     4.973000000    -6.322000000    -2.522000000
O     5.692000000    -4.787000000     6.821000000
H     5.039000000    -4.671000000     7.511000000
H     5.466000000    -5.624000000     6.415000000
O     4.416000000    -1.477000000     5.565000000
H     3.823000000    -2.228000000     5.539000000
H     4.765000000    -1.478000000     6.457000000
O     2.566000000    -0.301000000     2.684000000
H     2.400000000    -0.582000000     1.784000000
H     1.975000000    -0.836000000     3.214000000
O     0.697000000    -6.090000000     4.820000000
H     0.361000000    -5.868000000     5.689000000
H     0.741000000    -5.252000000     4.359000000
O     1.849000000    -8.894000000     0.761000000
H     1.837000000    -8.401000000     1.582000000
H     0.932000000    -9.115000000     0.601000000
O     4.749000000    -5.822000000     0.161000000
H     4.674000000    -5.409000000    -0.699000000
H     3.928000000    -5.606000000     0.603000000
