215
-1472.90008
C    -3.074000000    -3.101000000     3.235000000
H    -3.455000000    -3.492000000     2.295000000
C    -3.096000000    -1.734000000     3.493000000
C    -2.629000000    -1.212000000     4.683000000
H    -2.583000000    -0.141000000     4.861000000
C    -3.513000000    -0.765000000     2.334000000
O    -4.493000000    -1.440000000     1.488000000
H    -2.655000000    -0.456000000     1.718000000
O    -4.026000000     0.503000000     2.820000000
C    -3.661000000     1.655000000     2.196000000
C    -2.585000000     2.309000000     2.844000000
H    -2.137000000     2.016000000     3.791000000
C    -2.016000000     3.425000000     2.169000000
O    -0.774000000     3.951000000     2.653000000
C    -2.518000000     3.821000000     0.923000000
C    -2.053000000     5.022000000     0.241000000
H    -2.897000000     5.419000000    -0.328000000
C    -0.987000000     4.677000000    -0.802000000
C    -1.357000000     4.439000000    -2.149000000
H    -2.417000000     4.421000000    -2.389000000
H    -1.713000000     5.842000000     0.878000000
C    -3.615000000     3.154000000     0.367000000
H    -4.002000000     3.365000000    -0.626000000
C    -4.298000000     2.146000000     1.051000000
C    -5.444000000     1.278000000     0.492000000
H    -6.129000000     1.850000000    -0.138000000
H    -5.991000000     0.869000000     1.344000000
C    -4.901000000     0.160000000    -0.393000000
C    -4.842000000     0.271000000    -1.823000000
H    -5.210000000     1.173000000    -2.306000000
C    -4.475000000    -1.077000000     0.131000000
C    -3.989000000    -2.121000000    -0.699000000
H    -3.616000000    -3.028000000    -0.231000000
C    -3.805000000    -1.895000000    -2.020000000
O    -3.136000000    -2.897000000    -2.652000000
C    -1.797000000    -2.661000000    -2.976000000
C    -1.033000000    -3.983000000    -2.719000000
C     0.142000000    -4.257000000    -3.410000000
H     0.423000000    -3.607000000    -4.235000000
C    -1.247000000    -4.730000000    -1.555000000
H    -1.886000000    -4.348000000    -0.763000000
O    -1.693000000    -2.180000000    -4.315000000
H    -1.291000000    -1.996000000    -2.261000000
C    -4.283000000    -0.693000000    -2.608000000
C    -4.005000000    -0.474000000    -4.016000000
H    -4.715000000     0.261000000    -4.399000000
H    -4.113000000    -1.353000000    -4.656000000
C    -2.574000000     0.017000000    -4.163000000
C    -2.306000000     1.427000000    -4.291000000
H    -3.144000000     2.112000000    -4.189000000
C    -1.491000000    -0.851000000    -4.367000000
C    -0.218000000    -0.381000000    -4.516000000
H     0.650000000    -1.034000000    -4.546000000
C     0.020000000     0.967000000    -4.583000000
O     1.363000000     1.326000000    -4.661000000
C     2.007000000     1.940000000    -3.484000000
C     3.463000000     1.508000000    -3.214000000
C     3.692000000     0.126000000    -3.263000000
H     2.988000000    -0.511000000    -3.793000000
C     4.417000000     2.332000000    -2.599000000
H     4.315000000     3.412000000    -2.530000000
O     1.850000000     3.409000000    -3.593000000
H     1.413000000     1.602000000    -2.623000000
C    -1.014000000     1.892000000    -4.479000000
C    -0.793000000     3.396000000    -4.429000000
H    -1.684000000     3.908000000    -4.799000000
H     0.017000000     3.689000000    -5.100000000
C    -0.441000000     3.916000000    -3.066000000
C     0.896000000     3.864000000    -2.719000000
C     1.324000000     4.159000000    -1.429000000
H     2.364000000     4.104000000    -1.119000000
C     0.370000000     4.505000000    -0.449000000
O     0.814000000     4.563000000     0.866000000
C     0.404000000     3.596000000     1.858000000
H     0.277000000     2.674000000     1.271000000
C     1.531000000     3.280000000     2.809000000
C     1.317000000     2.404000000     3.914000000
H     0.331000000     2.018000000     4.163000000
C     2.817000000     3.680000000     2.511000000
H     2.909000000     4.494000000     1.797000000
C     3.919000000     3.125000000     3.207000000
O     5.258000000     3.560000000     2.962000000
C     3.708000000     2.306000000     4.317000000
H     4.503000000     1.879000000     4.924000000
C     2.416000000     1.931000000     4.671000000
O     2.277000000     1.151000000     5.805000000
C     1.111000000     0.939000000     6.467000000
C     0.368000000    -0.227000000     6.226000000
H     0.788000000    -1.067000000     5.678000000
C     0.547000000     1.966000000     7.308000000
H     1.095000000     2.897000000     7.433000000
C    -0.597000000     1.697000000     8.011000000
H    -0.987000000     2.394000000     8.748000000
C    -1.312000000     0.547000000     7.806000000
H    -2.121000000     0.395000000     8.515000000
C    -0.858000000    -0.418000000     6.951000000
O    -1.558000000    -1.586000000     6.797000000
C    -2.087000000    -2.066000000     5.636000000
C    -2.065000000    -3.454000000     5.401000000
H    -1.672000000    -4.111000000     6.173000000
C    -2.607000000    -4.004000000     4.238000000
O    -2.586000000    -5.370000000     4.041000000
C    -2.719000000    -6.005000000     2.864000000
C    -1.663000000    -5.988000000     2.015000000
H    -0.745000000    -5.522000000     2.363000000
C    -3.869000000    -6.662000000     2.417000000
H    -4.665000000    -6.845000000     3.134000000
C    -3.968000000    -7.284000000     1.195000000
H    -4.867000000    -7.850000000     0.963000000
C    -2.901000000    -7.140000000     0.322000000
H    -2.969000000    -7.740000000    -0.582000000
C    -1.771000000    -6.427000000     0.710000000
O    -0.607000000    -6.466000000    -0.063000000
C    -0.398000000    -5.789000000    -1.261000000
C     0.701000000    -6.136000000    -2.045000000
H     1.394000000    -6.935000000    -1.796000000
C     0.995000000    -5.361000000    -3.168000000
O     2.172000000    -5.590000000    -3.760000000
C     3.015000000    -4.525000000    -4.217000000
C     3.609000000    -3.659000000    -3.280000000
H     3.467000000    -3.719000000    -2.204000000
C     3.337000000    -4.346000000    -5.530000000
H     2.852000000    -4.974000000    -6.273000000
C     4.111000000    -3.244000000    -5.947000000
H     4.270000000    -3.075000000    -7.009000000
C     4.710000000    -2.407000000    -5.032000000
H     5.249000000    -1.534000000    -5.391000000
C     4.482000000    -2.656000000    -3.649000000
O     4.955000000    -1.805000000    -2.689000000
C     4.855000000    -0.417000000    -2.708000000
C     5.782000000     0.434000000    -2.083000000
H     6.738000000     0.060000000    -1.726000000
C     5.549000000     1.787000000    -2.025000000
O     6.495000000     2.702000000    -1.522000000
C     6.209000000     3.535000000    -0.555000000
C     6.192000000     4.870000000    -0.842000000
H     6.228000000     5.138000000    -1.895000000
C     6.133000000     5.829000000     0.123000000
H     6.179000000     6.896000000    -0.082000000
C     5.888000000     5.362000000     1.438000000
H     5.909000000     6.034000000     2.292000000
C     5.727000000     3.969000000     1.751000000
C     5.942000000     3.059000000     0.758000000
H     6.100000000     2.009000000     0.991000000
C     0.375000000    -1.099000000     2.114000000
H     0.316000000    -1.128000000     3.199000000
C    -0.156000000     0.052000000     1.461000000
H    -0.598000000     0.857000000     2.042000000
C    -0.176000000     0.215000000     0.090000000
H    -0.523000000     1.129000000    -0.282000000
C     0.422000000    -0.723000000    -0.728000000
H     0.494000000    -0.653000000    -1.810000000
C     0.822000000    -1.938000000    -0.077000000
H     1.195000000    -2.773000000    -0.664000000
C     0.871000000    -2.058000000     1.310000000
C     1.398000000    -3.368000000     1.909000000
O     1.980000000    -4.176000000     1.170000000
O     1.009000000    -3.598000000     3.037000000
O     0.447000000    -6.284000000     7.329000000
H     0.360000000    -7.237000000     7.298000000
H     0.273000000    -6.057000000     8.242000000
O     6.440000000    -1.181000000     4.089000000
H     5.833000000    -1.123000000     4.827000000
H     5.984000000    -0.745000000     3.369000000
O     6.123000000    -5.999000000     1.440000000
H     5.380000000    -5.821000000     0.864000000
H     6.232000000    -5.193000000     1.946000000
O     2.712000000    -2.721000000     4.883000000
H     2.017000000    -2.908000000     4.251000000
H     2.424000000    -3.149000000     5.689000000
O     4.573000000    -7.824000000     3.433000000
H     3.702000000    -7.480000000     3.234000000
H     5.090000000    -7.632000000     2.651000000
O     7.588000000    -1.457000000     0.151000000
H     6.739000000    -1.451000000     0.593000000
H     7.837000000    -2.380000000     0.122000000
O     0.025000000    -8.384000000     4.451000000
H     0.539000000    -8.659000000     5.211000000
H     0.471000000    -7.600000000     4.131000000
O     5.211000000    -3.809000000     3.170000000
H     4.506000000    -3.229000000     3.455000000
H     5.177000000    -4.546000000     3.781000000
O     2.158000000    -4.143000000     6.926000000
H     1.657000000    -3.445000000     7.348000000
H     1.614000000    -4.924000000     7.029000000
O     2.396000000    -9.472000000     2.691000000
H     1.958000000    -9.924000000     1.970000000
H     2.434000000    -8.557000000     2.413000000
O     4.901000000    -2.384000000     0.989000000
H     4.990000000    -2.845000000     1.823000000
H     4.721000000    -3.074000000     0.351000000
O     7.013000000    -3.598000000     5.605000000
H     6.096000000    -3.808000000     5.781000000
H     6.979000000    -2.932000000     4.918000000
O     2.315000000    -6.666000000     2.475000000
H     2.145000000    -5.822000000     2.057000000
H     1.835000000    -6.626000000     3.302000000
O     4.684000000    -5.517000000     5.339000000
H     3.811000000    -5.377000000     5.707000000
H     4.955000000    -6.368000000     5.683000000
O     4.807000000    -1.236000000     6.177000000
H     4.009000000    -1.287000000     5.651000000
H     4.527000000    -1.481000000     7.059000000
O     4.689000000    -0.046000000     2.211000000
H     3.748000000     0.059000000     2.352000000
H     4.757000000    -0.735000000     1.550000000
O     0.900000000    -5.803000000     4.626000000
H     0.227000000    -5.511000000     5.241000000
H     1.083000000    -5.032000000     4.088000000
O     2.583000000    -8.072000000    -0.061000000
H     2.505000000    -7.399000000     0.615000000
H     1.680000000    -8.251000000    -0.325000000
O     4.111000000    -4.832000000     0.038000000
H     3.857000000    -5.257000000    -0.782000000
H     3.284000000    -4.673000000     0.491000000
