215
-1437.48154
C    -2.813000000    -3.594000000     3.759000000
H    -3.761000000    -3.816000000     3.277000000
C    -2.326000000    -2.274000000     4.009000000
C    -1.244000000    -2.086000000     4.828000000
H    -0.893000000    -1.096000000     5.111000000
C    -2.867000000    -0.971000000     3.399000000
O    -4.072000000    -1.291000000     2.863000000
H    -2.194000000    -0.763000000     2.554000000
O    -2.857000000     0.236000000     4.277000000
C    -2.472000000     1.420000000     3.615000000
C    -1.187000000     1.848000000     3.677000000
H    -0.513000000     1.137000000     4.148000000
C    -0.748000000     2.983000000     3.126000000
O     0.513000000     3.380000000     3.449000000
C    -1.626000000     3.823000000     2.404000000
C    -1.195000000     5.155000000     1.816000000
H    -2.114000000     5.638000000     1.479000000
C    -0.505000000     5.023000000     0.524000000
C    -1.247000000     4.956000000    -0.668000000
H    -2.277000000     5.304000000    -0.671000000
H    -0.677000000     5.810000000     2.520000000
C    -2.982000000     3.379000000     2.283000000
H    -3.589000000     4.012000000     1.641000000
C    -3.392000000     2.117000000     2.873000000
C    -4.776000000     1.498000000     2.657000000
H    -5.501000000     2.287000000     2.447000000
H    -5.103000000     1.074000000     3.608000000
C    -4.780000000     0.496000000     1.469000000
C    -5.025000000     0.912000000     0.158000000
H    -5.478000000     1.858000000    -0.126000000
C    -4.405000000    -0.855000000     1.676000000
C    -4.207000000    -1.733000000     0.625000000
H    -3.899000000    -2.753000000     0.842000000
C    -4.292000000    -1.248000000    -0.676000000
O    -3.874000000    -2.112000000    -1.647000000
C    -2.632000000    -1.845000000    -2.247000000
C    -1.773000000    -3.151000000    -2.369000000
C    -0.852000000    -3.206000000    -3.412000000
H    -0.779000000    -2.372000000    -4.105000000
C    -1.979000000    -4.244000000    -1.507000000
H    -2.692000000    -4.118000000    -0.696000000
O    -2.951000000    -1.122000000    -3.465000000
H    -2.055000000    -1.123000000    -1.649000000
C    -4.744000000     0.074000000    -0.887000000
C    -4.921000000     0.646000000    -2.280000000
H    -5.609000000     1.494000000    -2.262000000
H    -5.389000000    -0.145000000    -2.870000000
C    -3.637000000     1.128000000    -2.881000000
C    -3.174000000     2.457000000    -2.708000000
H    -3.828000000     3.146000000    -2.179000000
C    -2.710000000     0.209000000    -3.384000000
C    -1.498000000     0.608000000    -3.883000000
H    -0.864000000    -0.113000000    -4.393000000
C    -1.157000000     1.958000000    -3.907000000
O     0.106000000     2.233000000    -4.303000000
C     1.164000000     2.287000000    -3.223000000
C     2.352000000     1.618000000    -3.733000000
C     2.334000000     0.774000000    -4.874000000
H     1.438000000     0.592000000    -5.462000000
C     3.591000000     1.882000000    -3.148000000
H     3.665000000     2.579000000    -2.317000000
O     1.416000000     3.680000000    -2.920000000
H     0.873000000     1.684000000    -2.350000000
C    -1.941000000     2.903000000    -3.247000000
C    -1.569000000     4.363000000    -3.099000000
H    -2.533000000     4.875000000    -3.082000000
H    -1.054000000     4.641000000    -4.021000000
C    -0.674000000     4.604000000    -1.859000000
C     0.717000000     4.256000000    -1.876000000
C     1.475000000     4.347000000    -0.692000000
H     2.469000000     3.911000000    -0.631000000
C     0.893000000     4.758000000     0.483000000
O     1.525000000     4.647000000     1.648000000
C     1.447000000     3.358000000     2.297000000
H     1.022000000     2.651000000     1.569000000
C     2.823000000     2.721000000     2.761000000
C     2.911000000     1.597000000     3.614000000
H     2.008000000     1.119000000     3.985000000
C     4.019000000     3.098000000     2.150000000
H     3.948000000     3.900000000     1.419000000
C     5.190000000     2.376000000     2.262000000
O     6.309000000     2.715000000     1.492000000
C     5.269000000     1.346000000     3.184000000
H     6.218000000     0.846000000     3.359000000
C     4.089000000     0.892000000     3.904000000
O     4.133000000    -0.157000000     4.801000000
C     3.081000000    -0.423000000     5.691000000
C     2.374000000    -1.593000000     5.530000000
H     2.588000000    -2.325000000     4.757000000
C     2.794000000     0.432000000     6.774000000
H     3.439000000     1.278000000     7.000000000
C     1.697000000     0.150000000     7.566000000
H     1.557000000     0.797000000     8.428000000
C     1.016000000    -1.019000000     7.439000000
H     0.188000000    -1.215000000     8.115000000
C     1.284000000    -1.865000000     6.381000000
O     0.517000000    -3.046000000     6.249000000
C    -0.537000000    -3.164000000     5.385000000
C    -0.929000000    -4.435000000     5.082000000
H    -0.447000000    -5.338000000     5.448000000
C    -2.030000000    -4.648000000     4.236000000
O    -2.265000000    -5.953000000     3.782000000
C    -2.753000000    -6.203000000     2.563000000
C    -1.897000000    -6.299000000     1.451000000
H    -0.824000000    -6.300000000     1.625000000
C    -4.090000000    -6.361000000     2.433000000
H    -4.817000000    -6.072000000     3.188000000
C    -4.597000000    -6.637000000     1.203000000
H    -5.643000000    -6.594000000     0.914000000
C    -3.758000000    -6.608000000     0.054000000
H    -4.202000000    -6.749000000    -0.928000000
C    -2.387000000    -6.483000000     0.168000000
O    -1.457000000    -6.467000000    -0.851000000
C    -1.251000000    -5.404000000    -1.699000000
C    -0.276000000    -5.451000000    -2.686000000
H     0.348000000    -6.339000000    -2.738000000
C    -0.080000000    -4.347000000    -3.544000000
O     0.861000000    -4.499000000    -4.618000000
C     1.178000000    -3.574000000    -5.590000000
C     2.163000000    -2.602000000    -5.402000000
H     2.694000000    -2.610000000    -4.454000000
C     0.394000000    -3.568000000    -6.750000000
H    -0.445000000    -4.243000000    -6.900000000
C     0.658000000    -2.643000000    -7.818000000
H     0.065000000    -2.635000000    -8.729000000
C     1.659000000    -1.718000000    -7.617000000
H     1.808000000    -0.989000000    -8.409000000
C     2.476000000    -1.713000000    -6.463000000
O     3.451000000    -0.754000000    -6.352000000
C     3.487000000     0.113000000    -5.327000000
C     4.720000000     0.413000000    -4.704000000
H     5.660000000    -0.070000000    -4.959000000
C     4.732000000     1.341000000    -3.705000000
O     6.027000000     1.595000000    -3.162000000
C     6.261000000     2.456000000    -2.176000000
C     6.862000000     3.681000000    -2.499000000
H     7.052000000     3.881000000    -3.550000000
C     7.198000000     4.645000000    -1.505000000
H     7.659000000     5.572000000    -1.836000000
C     6.965000000     4.304000000    -0.210000000
H     7.213000000     4.964000000     0.617000000
C     6.415000000     3.029000000     0.108000000
C     6.158000000     2.094000000    -0.822000000
H     5.949000000     1.076000000    -0.503000000
C     1.292000000    -0.666000000     1.591000000
H     1.576000000    -0.466000000     2.621000000
C     0.169000000    -0.053000000     1.070000000
H    -0.323000000     0.659000000     1.728000000
C    -0.164000000    -0.039000000    -0.314000000
H    -1.085000000     0.540000000    -0.662000000
C     0.648000000    -0.722000000    -1.156000000
H     0.454000000    -0.687000000    -2.225000000
C     1.895000000    -1.278000000    -0.638000000
H     2.582000000    -1.749000000    -1.337000000
C     2.129000000    -1.349000000     0.712000000
C     3.367000000    -2.098000000     1.120000000
O     4.208000000    -2.465000000     0.326000000
O     3.492000000    -2.396000000     2.299000000
O     6.831000000    -6.345000000     3.151000000
H     7.764000000    -6.241000000     2.966000000
H     6.412000000    -5.622000000     2.684000000
O     7.035000000     0.406000000     5.847000000
H     6.585000000     1.158000000     6.232000000
H     6.365000000    -0.030000000     5.321000000
O     6.120000000    -3.731000000     6.884000000
H     5.240000000    -3.689000000     7.260000000
H     6.272000000    -4.665000000     6.736000000
O     0.750000000    -8.417000000     0.060000000
H     1.344000000    -7.670000000    -0.015000000
H     1.191000000    -9.014000000     0.663000000
O     8.503000000    -0.698000000    -2.259000000
H     9.118000000    -1.389000000    -2.013000000
H     7.639000000    -1.089000000    -2.128000000
O     5.013000000    -4.705000000     1.739000000
H     4.965000000    -3.969000000     1.128000000
H     4.687000000    -4.351000000     2.566000000
O     6.203000000    -2.474000000    -1.574000000
H     5.503000000    -2.386000000    -0.927000000
H     6.394000000    -3.412000000    -1.594000000
O     2.756000000    -5.799000000     0.428000000
H     3.543000000    -5.537000000     0.905000000
H     2.209000000    -5.014000000     0.418000000
O     8.403000000    -2.904000000     0.278000000
H     9.211000000    -2.866000000    -0.235000000
H     8.049000000    -3.777000000     0.103000000
O     2.862000000    -4.414000000     7.554000000
H     2.324000000    -3.860000000     6.989000000
H     2.594000000    -5.307000000     7.339000000
O     4.777000000    -6.618000000    -1.685000000
H     4.223000000    -6.479000000    -0.917000000
H     4.611000000    -7.525000000    -1.939000000
O     3.884000000    -4.778000000    -4.089000000
H     4.155000000    -5.664000000    -4.332000000
H     4.143000000    -4.692000000    -3.171000000
O     5.822000000    -2.777000000    -4.409000000
H     5.907000000    -2.455000000    -3.512000000
H     5.024000000    -3.306000000    -4.399000000
O     1.928000000    -5.716000000     4.429000000
H     1.837000000    -4.844000000     4.046000000
H     2.108000000    -6.288000000     3.682000000
O     1.207000000    -3.618000000     2.571000000
H     2.002000000    -3.084000000     2.573000000
H     0.511000000    -3.012000000     2.822000000
O     9.292000000     0.385000000     0.297000000
H     8.807000000     0.369000000    -0.528000000
H    10.017000000    -0.226000000     0.161000000
O     7.619000000    -3.206000000     4.468000000
H     7.047000000    -2.791000000     3.823000000
H     7.136000000    -3.143000000     5.292000000
O     6.943000000    -5.175000000    -1.333000000
H     6.140000000    -5.677000000    -1.471000000
H     7.426000000    -5.672000000    -0.672000000
O     6.480000000    -1.907000000     2.411000000
H     5.538000000    -1.926000000     2.240000000
H     6.859000000    -1.520000000     1.622000000
