215
-1445.40607
C     2.081000000     2.781000000    -3.648000000
H     1.791000000     1.838000000    -4.105000000
C     3.007000000     2.824000000    -2.633000000
C     3.352000000     4.011000000    -1.967000000
H     4.107000000     4.062000000    -1.187000000
C     3.555000000     1.530000000    -2.151000000
O     3.920000000     0.700000000    -3.260000000
H     2.780000000     1.104000000    -1.499000000
O     4.711000000     1.657000000    -1.352000000
C     4.792000000     1.020000000    -0.096000000
C     4.151000000     1.594000000     0.991000000
H     3.839000000     2.634000000     0.945000000
C     3.994000000     0.862000000     2.178000000
O     3.357000000     1.511000000     3.239000000
C     4.367000000    -0.448000000     2.221000000
C     4.325000000    -1.273000000     3.510000000
H     5.090000000    -2.052000000     3.497000000
C     2.911000000    -1.821000000     3.539000000
C     2.568000000    -3.015000000     2.890000000
H     3.386000000    -3.636000000     2.534000000
H     4.503000000    -0.687000000     4.414000000
C     4.833000000    -1.048000000     1.080000000
H     5.111000000    -2.098000000     1.127000000
C     5.062000000    -0.343000000    -0.134000000
C     5.519000000    -1.071000000    -1.390000000
H     6.023000000    -1.962000000    -1.008000000
H     6.248000000    -0.538000000    -2.004000000
C     4.270000000    -1.543000000    -2.288000000
C     3.722000000    -2.824000000    -2.193000000
H     4.189000000    -3.573000000    -1.559000000
C     3.602000000    -0.642000000    -3.163000000
C     2.528000000    -1.158000000    -3.919000000
H     2.148000000    -0.450000000    -4.650000000
C     1.822000000    -2.324000000    -3.587000000
O     0.578000000    -2.539000000    -4.244000000
C    -0.635000000    -2.608000000    -3.440000000
C    -1.831000000    -2.127000000    -4.325000000
C    -3.126000000    -2.562000000    -3.980000000
H    -3.214000000    -3.310000000    -3.196000000
C    -1.677000000    -0.996000000    -5.070000000
H    -0.674000000    -0.584000000    -5.138000000
O    -0.843000000    -3.877000000    -2.901000000
H    -0.650000000    -1.905000000    -2.594000000
C     2.525000000    -3.225000000    -2.836000000
C     1.948000000    -4.620000000    -2.573000000
H     2.720000000    -5.366000000    -2.372000000
H     1.577000000    -4.942000000    -3.548000000
C     0.878000000    -4.582000000    -1.467000000
C     1.333000000    -4.821000000    -0.148000000
H     2.380000000    -5.064000000     0.016000000
C    -0.457000000    -4.226000000    -1.650000000
C    -1.345000000    -4.266000000    -0.581000000
H    -2.392000000    -4.059000000    -0.788000000
C    -0.937000000    -4.518000000     0.705000000
O    -1.862000000    -4.214000000     1.712000000
C    -1.831000000    -2.975000000     2.420000000
C    -3.211000000    -2.246000000     2.525000000
C    -4.008000000    -2.236000000     1.396000000
H    -3.600000000    -2.648000000     0.476000000
C    -3.454000000    -1.348000000     3.555000000
H    -2.686000000    -1.104000000     4.285000000
O    -1.096000000    -3.216000000     3.649000000
H    -1.159000000    -2.356000000     1.807000000
C     0.454000000    -4.700000000     0.969000000
C     0.920000000    -4.832000000     2.411000000
H     1.873000000    -5.356000000     2.503000000
H     0.215000000    -5.349000000     3.065000000
C     1.257000000    -3.477000000     2.976000000
C     0.222000000    -2.783000000     3.621000000
C     0.590000000    -1.587000000     4.255000000
H    -0.143000000    -0.936000000     4.724000000
C     1.923000000    -1.109000000     4.290000000
O     2.138000000     0.173000000     4.714000000
C     2.062000000     1.144000000     3.638000000
H     1.431000000     0.773000000     2.817000000
C     1.257000000     2.329000000     4.032000000
C     1.256000000     3.410000000     3.119000000
H     1.858000000     3.443000000     2.214000000
C     0.353000000     2.307000000     5.116000000
H     0.265000000     1.425000000     5.746000000
C    -0.521000000     3.387000000     5.330000000
O    -1.484000000     3.341000000     6.371000000
C    -0.534000000     4.453000000     4.417000000
H    -1.205000000     5.294000000     4.574000000
C     0.376000000     4.479000000     3.353000000
O     0.311000000     5.482000000     2.422000000
C     1.403000000     5.906000000     1.783000000
C     1.525000000     5.797000000     0.391000000
H     0.798000000     5.294000000    -0.242000000
C     2.329000000     6.756000000     2.492000000
H     2.165000000     7.062000000     3.522000000
C     3.468000000     7.314000000     1.834000000
H     4.091000000     8.034000000     2.360000000
C     3.594000000     7.154000000     0.472000000
H     4.403000000     7.664000000    -0.045000000
C     2.595000000     6.418000000    -0.196000000
O     2.770000000     6.309000000    -1.563000000
C     2.691000000     5.147000000    -2.315000000
C     1.764000000     5.149000000    -3.350000000
H     1.237000000     6.059000000    -3.622000000
C     1.372000000     3.947000000    -3.919000000
O     0.465000000     4.025000000    -4.949000000
C     0.152000000     3.008000000    -5.885000000
C    -1.049000000     2.369000000    -5.881000000
H    -1.744000000     2.682000000    -5.106000000
C     1.058000000     2.490000000    -6.798000000
H     2.013000000     3.007000000    -6.828000000
C     0.798000000     1.439000000    -7.719000000
H     1.576000000     1.249000000    -8.453000000
C    -0.501000000     0.906000000    -7.680000000
H    -0.783000000     0.082000000    -8.332000000
C    -1.453000000     1.361000000    -6.777000000
O    -2.708000000     0.745000000    -6.500000000
C    -2.769000000    -0.361000000    -5.715000000
C    -4.049000000    -0.892000000    -5.494000000
H    -4.900000000    -0.359000000    -5.908000000
C    -4.225000000    -1.990000000    -4.596000000
O    -5.482000000    -2.470000000    -4.299000000
C    -5.934000000    -2.862000000    -3.004000000
C    -5.711000000    -2.025000000    -1.939000000
H    -5.224000000    -1.056000000    -2.013000000
C    -6.485000000    -4.173000000    -2.804000000
H    -6.567000000    -4.904000000    -3.605000000
C    -6.859000000    -4.504000000    -1.456000000
H    -7.399000000    -5.417000000    -1.218000000
C    -6.650000000    -3.661000000    -0.391000000
H    -7.110000000    -3.845000000     0.577000000
C    -6.028000000    -2.441000000    -0.610000000
O    -5.994000000    -1.433000000     0.326000000
C    -5.205000000    -1.533000000     1.460000000
C    -5.474000000    -0.641000000     2.460000000
H    -6.358000000    -0.010000000     2.479000000
C    -4.646000000    -0.495000000     3.542000000
O    -4.943000000     0.491000000     4.467000000
C    -4.124000000     0.816000000     5.524000000
C    -4.457000000     0.406000000     6.781000000
H    -5.356000000    -0.179000000     6.957000000
C    -3.844000000     0.962000000     7.914000000
H    -4.335000000     0.669000000     8.839000000
C    -2.786000000     1.807000000     7.698000000
H    -2.343000000     2.211000000     8.605000000
C    -2.480000000     2.320000000     6.416000000
C    -3.137000000     1.792000000     5.315000000
H    -2.959000000     2.052000000     4.274000000
C    -1.678000000     0.061000000    -1.022000000
H    -2.551000000    -0.551000000    -1.233000000
C    -0.626000000    -0.587000000    -0.386000000
H    -0.805000000    -1.610000000    -0.065000000
C     0.586000000     0.043000000    -0.145000000
H     1.371000000    -0.486000000     0.197000000
C     0.683000000     1.389000000    -0.351000000
H     1.588000000     1.939000000    -0.108000000
C    -0.472000000     2.091000000    -0.743000000
H    -0.525000000     3.163000000    -0.916000000
C    -1.618000000     1.440000000    -1.278000000
C    -2.743000000     2.189000000    -1.863000000
O    -2.561000000     3.231000000    -2.445000000
O    -3.821000000     1.721000000    -1.741000000
O    -7.198000000     4.521000000    -4.368000000
H    -7.560000000     3.669000000    -4.609000000
H    -6.699000000     4.352000000    -3.569000000
O    -4.194000000     5.844000000     2.716000000
H    -3.688000000     5.250000000     2.162000000
H    -4.646000000     5.270000000     3.334000000
O    -5.621000000     3.204000000     2.915000000
H    -6.042000000     2.526000000     3.444000000
H    -5.426000000     2.772000000     2.084000000
O    -0.739000000     6.262000000    -6.589000000
H    -0.056000000     5.991000000    -7.203000000
H    -0.279000000     6.381000000    -5.758000000
O    -2.327000000     4.430000000     1.029000000
H    -2.335000000     3.569000000     0.611000000
H    -2.079000000     5.034000000     0.329000000
O    -2.337000000     5.665000000    -1.490000000
H    -2.385000000     4.753000000    -1.777000000
H    -1.746000000     6.082000000    -2.118000000
O    -5.489000000     2.639000000    -6.139000000
H    -6.397000000     2.501000000    -6.408000000
H    -5.369000000     2.052000000    -5.392000000
O    -4.821000000     6.927000000    -4.794000000
H    -4.602000000     6.153000000    -4.275000000
H    -5.579000000     6.660000000    -5.314000000
O    -5.591000000     1.622000000     0.307000000
H    -5.111000000     1.918000000    -0.466000000
H    -5.381000000     0.691000000     0.378000000
O    -4.240000000     2.028000000    -8.755000000
H    -4.090000000     2.103000000    -7.812000000
H    -3.649000000     1.331000000    -9.037000000
O    -7.882000000     4.929000000    -0.169000000
H    -8.487000000     4.233000000    -0.424000000
H    -7.077000000     4.735000000    -0.650000000
O    -2.383000000     4.544000000    -7.982000000
H    -1.922000000     5.220000000    -7.485000000
H    -2.546000000     3.848000000    -7.346000000
O    -5.766000000     4.013000000    -1.866000000
H    -5.041000000     3.392000000    -1.793000000
H    -5.358000000     4.872000000    -1.760000000
O    -5.131000000     6.491000000    -1.283000000
H    -4.182000000     6.367000000    -1.272000000
H    -5.307000000     7.061000000    -0.535000000
O    -7.772000000     1.452000000    -1.527000000
H    -7.190000000     1.639000000    -0.790000000
H    -8.569000000     1.945000000    -1.333000000
O    -1.296000000     7.025000000    -3.460000000
H    -2.086000000     6.797000000    -3.950000000
H    -0.704000000     7.393000000    -4.116000000
O    -1.529000000     7.662000000     0.355000000
H    -1.853000000     7.159000000    -0.392000000
H    -2.233000000     8.282000000     0.550000000
O    -5.665000000     1.390000000    -3.615000000
H    -5.071000000     1.560000000    -2.884000000
H    -6.539000000     1.514000000    -3.247000000
O    -3.845000000     4.360000000    -4.452000000
H    -3.420000000     3.830000000    -3.777000000
H    -4.275000000     3.721000000    -5.021000000
