215
-1440.68055
C    -1.918000000    -2.824000000     3.777000000
H    -2.693000000    -3.089000000     3.062000000
C    -1.819000000    -1.445000000     4.066000000
C    -0.836000000    -1.029000000     5.016000000
H    -0.756000000     0.003000000     5.346000000
C    -2.663000000    -0.446000000     3.296000000
O    -3.902000000    -0.992000000     2.744000000
H    -2.030000000    -0.204000000     2.430000000
O    -2.779000000     0.803000000     4.031000000
C    -2.586000000     1.993000000     3.349000000
C    -1.365000000     2.606000000     3.564000000
H    -0.656000000     2.176000000     4.267000000
C    -1.060000000     3.718000000     2.815000000
O     0.234000000     4.173000000     2.896000000
C    -1.907000000     4.238000000     1.842000000
C    -1.435000000     5.323000000     0.878000000
H    -2.239000000     5.953000000     0.492000000
C    -0.675000000     4.816000000    -0.281000000
C    -1.450000000     4.644000000    -1.433000000
H    -2.512000000     4.869000000    -1.388000000
H    -0.690000000     5.966000000     1.349000000
C    -3.203000000     3.619000000     1.632000000
H    -3.881000000     3.996000000     0.871000000
C    -3.517000000     2.494000000     2.384000000
C    -4.820000000     1.728000000     2.159000000
H    -5.616000000     2.383000000     1.800000000
H    -5.173000000     1.329000000     3.112000000
C    -4.659000000     0.574000000     1.137000000
C    -4.923000000     0.769000000    -0.244000000
H    -5.264000000     1.736000000    -0.606000000
C    -4.223000000    -0.729000000     1.476000000
C    -3.992000000    -1.787000000     0.568000000
H    -3.500000000    -2.685000000     0.933000000
C    -4.306000000    -1.534000000    -0.758000000
O    -3.829000000    -2.378000000    -1.755000000
C    -2.477000000    -2.190000000    -2.232000000
C    -1.717000000    -3.494000000    -2.241000000
C    -0.411000000    -3.589000000    -2.747000000
H     0.066000000    -2.776000000    -3.287000000
C    -2.217000000    -4.542000000    -1.407000000
H    -3.141000000    -4.422000000    -0.847000000
O    -2.552000000    -1.692000000    -3.540000000
H    -1.931000000    -1.424000000    -1.662000000
C    -4.734000000    -0.259000000    -1.184000000
C    -4.909000000    -0.005000000    -2.688000000
H    -5.583000000     0.851000000    -2.768000000
H    -5.409000000    -0.862000000    -3.143000000
C    -3.522000000     0.468000000    -3.271000000
C    -3.265000000     1.826000000    -3.284000000
H    -3.982000000     2.535000000    -2.880000000
C    -2.517000000    -0.354000000    -3.699000000
C    -1.393000000     0.095000000    -4.320000000
H    -0.648000000    -0.563000000    -4.758000000
C    -1.135000000     1.434000000    -4.265000000
O     0.075000000     1.766000000    -4.815000000
C     1.147000000     2.007000000    -3.907000000
C     2.469000000     1.323000000    -4.337000000
C     2.453000000     0.200000000    -5.194000000
H     1.479000000    -0.147000000    -5.528000000
C     3.684000000     1.750000000    -3.871000000
H     3.756000000     2.608000000    -3.207000000
O     1.270000000     3.404000000    -3.718000000
H     0.947000000     1.585000000    -2.911000000
C    -2.065000000     2.350000000    -3.785000000
C    -1.728000000     3.781000000    -3.829000000
H    -2.561000000     4.483000000    -3.751000000
H    -1.342000000     4.028000000    -4.820000000
C    -0.786000000     4.178000000    -2.591000000
C     0.605000000     3.920000000    -2.630000000
C     1.324000000     4.027000000    -1.455000000
H     2.369000000     3.728000000    -1.428000000
C     0.740000000     4.493000000    -0.284000000
O     1.547000000     4.438000000     0.812000000
C     1.130000000     3.552000000     1.836000000
H     0.665000000     2.709000000     1.304000000
C     2.402000000     2.972000000     2.380000000
C     2.556000000     2.821000000     3.752000000
H     1.785000000     3.211000000     4.411000000
C     3.369000000     2.394000000     1.568000000
H     3.310000000     2.386000000     0.482000000
C     4.504000000     1.763000000     2.068000000
O     5.424000000     1.306000000     1.147000000
C     4.678000000     1.634000000     3.466000000
H     5.590000000     1.217000000     3.885000000
C     3.686000000     2.166000000     4.346000000
O     3.708000000     2.134000000     5.718000000
C     2.701000000     1.493000000     6.436000000
C     2.318000000     0.219000000     6.010000000
H     2.823000000    -0.179000000     5.134000000
C     2.062000000     2.100000000     7.483000000
H     2.393000000     3.080000000     7.818000000
C     1.176000000     1.385000000     8.255000000
H     0.830000000     1.894000000     9.151000000
C     0.881000000     0.049000000     7.910000000
H     0.077000000    -0.473000000     8.421000000
C     1.476000000    -0.547000000     6.817000000
O     1.095000000    -1.728000000     6.293000000
C     0.018000000    -2.029000000     5.497000000
C    -0.127000000    -3.407000000     5.187000000
H     0.703000000    -4.076000000     5.398000000
C    -1.054000000    -3.759000000     4.289000000
O    -1.248000000    -5.085000000     3.974000000
C    -2.153000000    -5.612000000     3.032000000
C    -1.692000000    -6.024000000     1.782000000
H    -0.616000000    -6.050000000     1.633000000
C    -3.517000000    -5.662000000     3.250000000
H    -3.889000000    -5.341000000     4.219000000
C    -4.371000000    -6.099000000     2.293000000
H    -5.437000000    -6.124000000     2.502000000
C    -3.893000000    -6.469000000     1.058000000
H    -4.557000000    -6.855000000     0.290000000
C    -2.517000000    -6.499000000     0.846000000
O    -2.049000000    -6.701000000    -0.472000000
C    -1.531000000    -5.710000000    -1.255000000
C    -0.308000000    -5.858000000    -1.913000000
H     0.221000000    -6.789000000    -1.727000000
C     0.254000000    -4.821000000    -2.614000000
O     1.484000000    -4.987000000    -3.264000000
C     1.680000000    -4.263000000    -4.415000000
C     2.699000000    -3.354000000    -4.583000000
H     3.245000000    -3.006000000    -3.710000000
C     0.996000000    -4.732000000    -5.564000000
H     0.214000000    -5.470000000    -5.405000000
C     1.316000000    -4.255000000    -6.863000000
H     0.916000000    -4.752000000    -7.743000000
C     2.258000000    -3.294000000    -7.015000000
H     2.395000000    -2.865000000    -8.004000000
C     2.927000000    -2.822000000    -5.921000000
O     3.601000000    -1.643000000    -6.250000000
C     3.609000000    -0.454000000    -5.501000000
C     4.753000000    -0.045000000    -4.986000000
H     5.689000000    -0.548000000    -5.216000000
C     4.801000000     1.039000000    -4.133000000
O     6.001000000     1.344000000    -3.516000000
C     6.079000000     2.031000000    -2.277000000
C     6.370000000     3.393000000    -2.215000000
H     6.612000000     3.901000000    -3.145000000
C     6.388000000     4.101000000    -1.005000000
H     6.563000000     5.173000000    -1.062000000
C     6.062000000     3.429000000     0.178000000
H     5.968000000     4.037000000     1.075000000
C     5.902000000     2.032000000     0.095000000
C     5.800000000     1.360000000    -1.098000000
H     5.505000000     0.314000000    -1.108000000
C     2.276000000    -0.825000000     1.367000000
H     2.940000000    -1.100000000     2.182000000
C     1.021000000    -0.306000000     1.629000000
H     0.622000000    -0.161000000     2.629000000
C     0.172000000     0.101000000     0.607000000
H    -0.842000000     0.503000000     0.757000000
C     0.485000000    -0.100000000    -0.702000000
H    -0.183000000     0.130000000    -1.528000000
C     1.706000000    -0.673000000    -0.977000000
H     1.969000000    -0.769000000    -2.027000000
C     2.574000000    -1.112000000     0.080000000
C     3.877000000    -1.752000000    -0.278000000
O     4.087000000    -2.043000000    -1.414000000
O     4.622000000    -2.127000000     0.620000000
O     7.803000000    -3.906000000     2.000000000
H     8.124000000    -4.796000000     1.855000000
H     8.565000000    -3.426000000     2.323000000
O     6.913000000    -1.936000000     5.500000000
H     6.162000000    -2.022000000     6.088000000
H     6.529000000    -1.897000000     4.625000000
O     3.581000000    -7.302000000    -1.837000000
H     4.316000000    -7.851000000    -1.562000000
H     3.872000000    -6.407000000    -1.660000000
O     8.168000000    -1.697000000    -5.054000000
H     8.277000000    -2.511000000    -4.563000000
H     7.426000000    -1.261000000    -4.634000000
O     5.824000000    -2.487000000     3.190000000
H     5.538000000    -2.103000000     2.362000000
H     6.697000000    -2.833000000     3.005000000
O     6.474000000    -1.667000000    -2.684000000
H     5.592000000    -1.516000000    -2.344000000
H     7.029000000    -1.703000000    -1.905000000
O     5.937000000    -5.240000000     5.473000000
H     6.019000000    -4.874000000     4.592000000
H     5.354000000    -4.634000000     5.931000000
O     5.241000000    -6.266000000     2.774000000
H     6.191000000    -6.194000000     2.680000000
H     4.904000000    -5.436000000     2.438000000
O     4.770000000    -4.730000000    -1.755000000
H     4.571000000    -3.796000000    -1.686000000
H     5.434000000    -4.884000000    -1.084000000
O     8.411000000    -4.349000000    -3.830000000
H     8.340000000    -4.495000000    -2.887000000
H     7.560000000    -4.615000000    -4.178000000
O     3.731000000    -3.625000000     4.470000000
H     3.329000000    -4.042000000     3.708000000
H     4.422000000    -3.073000000     4.103000000
O     3.858000000    -4.381000000     1.519000000
H     4.230000000    -3.505000000     1.420000000
H     3.350000000    -4.518000000     0.720000000
O     9.063000000     0.067000000    -0.016000000
H     8.594000000    -0.754000000    -0.165000000
H     8.942000000     0.563000000    -0.825000000
O     8.349000000     1.229000000     2.269000000
H     7.444000000     1.470000000     2.071000000
H     8.693000000     0.891000000     1.442000000
O     3.291000000    -7.253000000    -4.731000000
H     2.643000000    -6.670000000    -4.336000000
H     4.127000000    -6.803000000    -4.605000000
O     4.367000000    -8.459000000     1.313000000
H     5.079000000    -8.356000000     0.682000000
H     4.261000000    -7.589000000     1.698000000
O     5.756000000    -4.058000000    -4.100000000
H     5.293000000    -4.232000000    -3.281000000
H     6.131000000    -3.185000000    -3.982000000
O     6.912000000    -5.725000000    -0.500000000
H     7.103000000    -6.612000000    -0.195000000
H     7.768000000    -5.300000000    -0.551000000
O     7.339000000    -2.083000000    -0.123000000
H     6.491000000    -1.847000000     0.254000000
H     7.610000000    -2.860000000     0.366000000
