215
-1453.78296
C    -1.689000000    -3.419000000     3.652000000
H    -2.347000000    -3.802000000     2.876000000
C    -1.582000000    -2.053000000     3.961000000
C    -0.737000000    -1.709000000     4.984000000
H    -0.708000000    -0.667000000     5.291000000
C    -2.345000000    -1.032000000     3.137000000
O    -3.549000000    -1.627000000     2.609000000
H    -1.817000000    -0.745000000     2.216000000
O    -2.646000000     0.217000000     3.831000000
C    -2.677000000     1.425000000     3.151000000
C    -1.604000000     2.232000000     3.361000000
H    -0.888000000     1.950000000     4.129000000
C    -1.515000000     3.489000000     2.719000000
O    -0.300000000     4.149000000     2.797000000
C    -2.456000000     3.846000000     1.799000000
C    -2.350000000     5.050000000     0.868000000
H    -3.351000000     5.342000000     0.545000000
C    -1.407000000     4.841000000    -0.284000000
C    -1.982000000     4.391000000    -1.478000000
H    -3.058000000     4.295000000    -1.596000000
H    -1.962000000     5.883000000     1.458000000
C    -3.588000000     2.968000000     1.552000000
H    -4.299000000     3.182000000     0.758000000
C    -3.691000000     1.824000000     2.308000000
C    -4.941000000     0.956000000     2.129000000
H    -5.774000000     1.616000000     1.882000000
H    -5.148000000     0.453000000     3.076000000
C    -4.644000000    -0.102000000     1.087000000
C    -4.915000000     0.131000000    -0.253000000
H    -5.427000000     1.069000000    -0.453000000
C    -3.979000000    -1.277000000     1.384000000
C    -3.626000000    -2.198000000     0.429000000
H    -3.170000000    -3.151000000     0.686000000
C    -3.845000000    -1.920000000    -0.925000000
O    -3.567000000    -2.807000000    -1.913000000
C    -2.280000000    -2.703000000    -2.533000000
C    -1.559000000    -4.024000000    -2.541000000
C    -0.526000000    -4.230000000    -3.515000000
H    -0.615000000    -3.586000000    -4.387000000
C    -1.507000000    -4.853000000    -1.432000000
H    -2.158000000    -4.613000000    -0.596000000
O    -2.563000000    -2.077000000    -3.803000000
H    -1.632000000    -2.158000000    -1.831000000
C    -4.539000000    -0.720000000    -1.270000000
C    -4.789000000    -0.318000000    -2.716000000
H    -5.589000000     0.423000000    -2.669000000
H    -5.128000000    -1.217000000    -3.235000000
C    -3.456000000     0.182000000    -3.300000000
C    -3.278000000     1.607000000    -3.315000000
H    -4.021000000     2.296000000    -2.922000000
C    -2.468000000    -0.702000000    -3.845000000
C    -1.365000000    -0.133000000    -4.468000000
H    -0.679000000    -0.805000000    -4.978000000
C    -1.120000000     1.267000000    -4.421000000
O     0.125000000     1.754000000    -4.792000000
C     0.866000000     2.146000000    -3.650000000
C     2.304000000     1.577000000    -3.698000000
C     2.581000000     0.227000000    -4.099000000
H     1.772000000    -0.455000000    -4.348000000
C     3.412000000     2.374000000    -3.386000000
H     3.339000000     3.447000000    -3.224000000
O     0.923000000     3.582000000    -3.440000000
H     0.337000000     1.786000000    -2.755000000
C    -2.083000000     2.083000000    -3.824000000
C    -1.922000000     3.587000000    -3.811000000
H    -2.911000000     4.026000000    -3.962000000
H    -1.295000000     3.885000000    -4.654000000
C    -1.234000000     4.111000000    -2.624000000
C     0.154000000     4.243000000    -2.580000000
C     0.787000000     4.546000000    -1.389000000
H     1.873000000     4.553000000    -1.345000000
C     0.025000000     4.876000000    -0.271000000
O     0.742000000     5.074000000     0.928000000
C     0.730000000     3.929000000     1.839000000
H     0.357000000     3.050000000     1.292000000
C     1.968000000     3.467000000     2.394000000
C     1.991000000     2.881000000     3.680000000
H     1.067000000     2.864000000     4.252000000
C     3.205000000     3.683000000     1.781000000
H     3.280000000     4.279000000     0.875000000
C     4.439000000     3.080000000     2.186000000
O     5.615000000     3.300000000     1.588000000
C     4.361000000     2.439000000     3.430000000
H     5.254000000     2.103000000     3.952000000
C     3.180000000     2.361000000     4.146000000
O     3.276000000     1.693000000     5.284000000
C     2.330000000     1.045000000     6.019000000
C     2.144000000    -0.328000000     5.922000000
H     2.562000000    -0.860000000     5.072000000
C     1.734000000     1.771000000     7.082000000
H     2.006000000     2.822000000     7.150000000
C     0.821000000     1.136000000     7.921000000
H     0.381000000     1.735000000     8.714000000
C     0.590000000    -0.224000000     7.839000000
H     0.000000000    -0.680000000     8.630000000
C     1.308000000    -0.970000000     6.849000000
O     0.999000000    -2.293000000     6.640000000
C     0.002000000    -2.618000000     5.707000000
C    -0.045000000    -3.980000000     5.374000000
H     0.516000000    -4.654000000     6.015000000
C    -0.915000000    -4.315000000     4.331000000
O    -1.314000000    -5.646000000     4.162000000
C    -1.816000000    -6.165000000     3.010000000
C    -1.016000000    -6.234000000     1.971000000
H     0.037000000    -5.991000000     2.082000000
C    -3.185000000    -6.367000000     2.932000000
H    -3.888000000    -6.238000000     3.751000000
C    -3.740000000    -6.934000000     1.733000000
H    -4.808000000    -7.118000000     1.642000000
C    -2.901000000    -7.044000000     0.634000000
H    -3.287000000    -7.407000000    -0.315000000
C    -1.565000000    -6.750000000     0.790000000
O    -0.677000000    -6.917000000    -0.257000000
C    -0.628000000    -5.949000000    -1.322000000
C     0.344000000    -6.044000000    -2.275000000
H     1.055000000    -6.866000000    -2.262000000
C     0.451000000    -5.159000000    -3.311000000
O     1.421000000    -5.390000000    -4.226000000
C     1.972000000    -4.353000000    -5.008000000
C     2.755000000    -3.433000000    -4.341000000
H     3.028000000    -3.599000000    -3.302000000
C     1.623000000    -4.175000000    -6.387000000
H     1.105000000    -4.919000000    -6.986000000
C     2.066000000    -2.957000000    -7.032000000
H     1.689000000    -2.771000000    -8.035000000
C     2.859000000    -2.066000000    -6.306000000
H     3.193000000    -1.146000000    -6.780000000
C     3.202000000    -2.331000000    -5.004000000
O     4.171000000    -1.558000000    -4.511000000
C     3.870000000    -0.250000000    -4.092000000
C     4.933000000     0.560000000    -3.699000000
H     5.975000000     0.264000000    -3.614000000
C     4.742000000     1.867000000    -3.367000000
O     5.842000000     2.683000000    -3.175000000
C     5.900000000     3.514000000    -2.067000000
C     6.113000000     4.920000000    -2.220000000
H     6.174000000     5.295000000    -3.238000000
C     6.283000000     5.762000000    -1.119000000
H     6.552000000     6.805000000    -1.265000000
C     6.083000000     5.203000000     0.133000000
H     6.267000000     5.825000000     1.006000000
C     5.780000000     3.793000000     0.292000000
C     5.725000000     2.913000000    -0.819000000
H     5.572000000     1.837000000    -0.817000000
C     1.182000000    -1.160000000     1.137000000
H     1.502000000    -1.176000000     2.176000000
C     0.507000000    -0.037000000     0.585000000
H     0.323000000     0.783000000     1.275000000
C     0.103000000    -0.055000000    -0.724000000
H    -0.331000000     0.830000000    -1.231000000
C     0.580000000    -1.105000000    -1.535000000
H     0.360000000    -0.934000000    -2.586000000
C     1.159000000    -2.235000000    -0.963000000
H     1.488000000    -3.090000000    -1.548000000
C     1.534000000    -2.297000000     0.363000000
C     2.332000000    -3.515000000     0.862000000
O     2.363000000    -4.591000000     0.317000000
O     2.857000000    -3.342000000     1.962000000
O     2.863000000    -4.029000000     4.515000000
H     3.027000000    -4.969000000     4.437000000
H     2.670000000    -3.745000000     3.622000000
O     7.579000000    -4.074000000    -1.006000000
H     7.515000000    -3.286000000    -0.465000000
H     6.863000000    -4.632000000    -0.702000000
O     7.181000000    -3.290000000     3.896000000
H     6.549000000    -3.740000000     3.336000000
H     7.735000000    -3.989000000     4.243000000
O     1.877000000   -10.330000000     0.579000000
H     2.287000000    -9.547000000     0.210000000
H     1.214000000   -10.579000000    -0.065000000
O     5.076000000    -4.872000000     2.253000000
H     4.467000000    -4.286000000     1.804000000
H     4.515000000    -5.454000000     2.766000000
O     5.398000000    -5.784000000    -3.938000000
H     5.038000000    -5.406000000    -3.136000000
H     5.526000000    -5.035000000    -4.519000000
O     4.006000000    -5.033000000    -1.732000000
H     3.156000000    -4.841000000    -1.335000000
H     4.639000000    -4.873000000    -1.033000000
O     3.776000000    -3.148000000     7.008000000
H     4.633000000    -2.938000000     6.636000000
H     3.232000000    -3.362000000     6.251000000
O     6.010000000    -8.442000000     2.412000000
H     5.162000000    -8.398000000     1.970000000
H     6.108000000    -9.364000000     2.651000000
O     2.521000000    -6.847000000     4.131000000
H     1.634000000    -7.148000000     4.328000000
H     2.720000000    -7.232000000     3.277000000
O     7.442000000    -2.451000000     1.213000000
H     7.450000000    -2.399000000     2.168000000
H     6.571000000    -2.142000000     0.964000000
O     3.097000000    -6.914000000     1.476000000
H     2.679000000    -6.060000000     1.372000000
H     3.203000000    -7.240000000     0.582000000
O     7.516000000    -0.611000000    -1.300000000
H     7.460000000    -0.881000000    -0.383000000
H     8.210000000     0.048000000    -1.313000000
O     4.774000000    -1.605000000     0.880000000
H     4.827000000    -1.727000000    -0.068000000
H     4.019000000    -2.129000000     1.146000000
O     3.300000000    -8.274000000    -0.894000000
H     3.004000000    -8.781000000    -1.650000000
H     3.617000000    -7.451000000    -1.266000000
O    -0.297000000    -9.565000000    -1.440000000
H    -0.221000000    -8.925000000    -0.732000000
H    -1.220000000    -9.818000000    -1.436000000
O     6.225000000    -6.185000000     0.137000000
H     7.103000000    -6.311000000     0.498000000
H     5.713000000    -5.839000000     0.867000000
O     4.775000000    -2.222000000    -1.698000000
H     3.965000000    -2.003000000    -2.159000000
H     5.419000000    -2.353000000    -2.393000000
O     3.252000000    -6.236000000     6.933000000
H     3.386000000    -6.484000000     6.018000000
H     3.067000000    -5.298000000     6.902000000
