215
-1445.96905
C    -1.232000000    -2.040000000     5.032000000
H    -2.231000000    -2.468000000     5.009000000
C    -1.017000000    -0.765000000     4.603000000
C     0.297000000    -0.302000000     4.625000000
H     0.430000000     0.724000000     4.290000000
C    -2.091000000    -0.004000000     3.779000000
O    -3.375000000    -0.790000000     3.700000000
H    -1.582000000     0.024000000     2.804000000
O    -2.243000000     1.302000000     4.258000000
C    -2.388000000     2.226000000     3.262000000
C    -1.302000000     3.123000000     3.085000000
H    -0.383000000     3.016000000     3.656000000
C    -1.298000000     4.032000000     2.008000000
O    -0.042000000     4.684000000     1.837000000
C    -2.442000000     4.212000000     1.242000000
C    -2.359000000     5.080000000    -0.032000000
H    -3.306000000     5.515000000    -0.357000000
C    -1.721000000     4.309000000    -1.188000000
C    -2.602000000     3.744000000    -2.146000000
H    -3.652000000     3.577000000    -1.919000000
H    -1.811000000     5.972000000     0.282000000
C    -3.567000000     3.443000000     1.473000000
H    -4.360000000     3.488000000     0.732000000
C    -3.551000000     2.402000000     2.464000000
C    -4.738000000     1.516000000     2.577000000
H    -5.610000000     2.065000000     2.214000000
H    -4.855000000     1.386000000     3.655000000
C    -4.684000000     0.149000000     1.884000000
C    -5.145000000    -0.017000000     0.569000000
H    -5.679000000     0.820000000     0.126000000
C    -3.943000000    -0.898000000     2.464000000
C    -3.824000000    -2.150000000     1.828000000
H    -3.188000000    -2.897000000     2.296000000
C    -4.270000000    -2.278000000     0.547000000
O    -3.848000000    -3.376000000    -0.149000000
C    -2.644000000    -3.245000000    -0.943000000
C    -1.753000000    -4.418000000    -0.723000000
C    -0.875000000    -4.777000000    -1.754000000
H    -1.013000000    -4.256000000    -2.699000000
C    -1.617000000    -5.059000000     0.494000000
H    -2.315000000    -4.796000000     1.284000000
O    -3.002000000    -3.087000000    -2.320000000
H    -2.042000000    -2.374000000    -0.648000000
C    -4.846000000    -1.182000000    -0.116000000
C    -5.195000000    -1.282000000    -1.588000000
H    -6.092000000    -0.706000000    -1.824000000
H    -5.559000000    -2.278000000    -1.848000000
C    -4.067000000    -0.893000000    -2.467000000
C    -3.963000000     0.384000000    -2.904000000
H    -4.797000000     1.076000000    -2.826000000
C    -3.104000000    -1.845000000    -2.835000000
C    -2.075000000    -1.422000000    -3.703000000
H    -1.315000000    -2.064000000    -4.140000000
C    -1.877000000    -0.075000000    -4.006000000
O    -0.773000000     0.197000000    -4.754000000
C     0.169000000     0.996000000    -4.009000000
C     1.642000000     0.528000000    -4.182000000
C     1.879000000    -0.839000000    -4.349000000
H     1.039000000    -1.526000000    -4.410000000
C     2.665000000     1.416000000    -3.957000000
H     2.514000000     2.464000000    -3.711000000
O    -0.004000000     2.412000000    -4.385000000
H    -0.096000000     0.920000000    -2.944000000
C    -2.861000000     0.847000000    -3.670000000
C    -2.833000000     2.218000000    -4.185000000
H    -3.881000000     2.492000000    -4.326000000
H    -2.400000000     2.222000000    -5.188000000
C    -2.014000000     3.100000000    -3.259000000
C    -0.660000000     3.196000000    -3.453000000
C     0.157000000     3.796000000    -2.576000000
H     1.226000000     3.614000000    -2.650000000
C    -0.360000000     4.423000000    -1.448000000
O     0.429000000     4.949000000    -0.511000000
C     0.798000000     4.210000000     0.740000000
H     0.619000000     3.132000000     0.618000000
C     2.228000000     4.477000000     1.100000000
C     2.780000000     3.811000000     2.195000000
H     2.058000000     3.295000000     2.822000000
C     2.982000000     5.100000000     0.125000000
H     2.531000000     5.561000000    -0.751000000
C     4.376000000     5.085000000     0.194000000
O     5.170000000     5.541000000    -0.848000000
C     4.887000000     4.395000000     1.259000000
H     5.973000000     4.342000000     1.281000000
C     4.176000000     3.806000000     2.324000000
O     4.933000000     3.192000000     3.338000000
C     4.255000000     2.578000000     4.322000000
C     3.886000000     1.206000000     4.224000000
H     4.032000000     0.591000000     3.339000000
C     3.796000000     3.348000000     5.326000000
H     4.067000000     4.401000000     5.313000000
C     2.921000000     2.773000000     6.305000000
H     2.559000000     3.384000000     7.128000000
C     2.510000000     1.467000000     6.209000000
H     1.704000000     1.055000000     6.812000000
C     2.982000000     0.722000000     5.180000000
O     2.616000000    -0.635000000     5.095000000
C     1.344000000    -1.123000000     5.082000000
C     1.121000000    -2.377000000     5.485000000
H     1.959000000    -2.947000000     5.879000000
C    -0.144000000    -2.870000000     5.495000000
O    -0.411000000    -4.167000000     5.880000000
C    -1.056000000    -5.059000000     5.081000000
C    -0.527000000    -5.388000000     3.813000000
H     0.328000000    -4.811000000     3.470000000
C    -2.055000000    -5.950000000     5.639000000
H    -2.470000000    -5.889000000     6.642000000
C    -2.602000000    -6.961000000     4.866000000
H    -3.453000000    -7.497000000     5.279000000
C    -2.051000000    -7.261000000     3.568000000
H    -2.415000000    -8.128000000     3.024000000
C    -1.031000000    -6.472000000     3.084000000
O    -0.506000000    -6.798000000     1.828000000
C    -0.637000000    -6.085000000     0.704000000
C     0.188000000    -6.463000000    -0.322000000
H     1.034000000    -7.124000000    -0.152000000
C     0.131000000    -5.755000000    -1.492000000
O     0.963000000    -6.213000000    -2.449000000
C     1.481000000    -5.543000000    -3.559000000
C     2.295000000    -4.367000000    -3.496000000
H     2.568000000    -3.968000000    -2.522000000
C     1.246000000    -6.147000000    -4.820000000
H     0.787000000    -7.130000000    -4.885000000
C     1.587000000    -5.410000000    -5.996000000
H     1.323000000    -5.828000000    -6.964000000
C     2.462000000    -4.291000000    -5.847000000
H     2.936000000    -3.861000000    -6.726000000
C     2.827000000    -3.789000000    -4.659000000
O     3.595000000    -2.633000000    -4.603000000
C     3.186000000    -1.295000000    -4.457000000
C     4.240000000    -0.406000000    -4.150000000
H     5.279000000    -0.695000000    -4.012000000
C     3.940000000     0.955000000    -4.017000000
O     5.011000000     1.825000000    -3.791000000
C     4.917000000     3.227000000    -3.683000000
C     4.680000000     4.070000000    -4.815000000
H     4.497000000     3.718000000    -5.827000000
C     4.710000000     5.440000000    -4.559000000
H     4.717000000     6.155000000    -5.378000000
C     4.933000000     5.898000000    -3.230000000
H     4.978000000     6.950000000    -2.959000000
C     5.011000000     5.015000000    -2.167000000
C     5.017000000     3.655000000    -2.403000000
H     5.189000000     2.978000000    -1.570000000
C     1.587000000    -2.101000000     1.105000000
H     1.592000000    -3.149000000     1.393000000
C     0.357000000    -1.513000000     0.723000000
H    -0.552000000    -2.082000000     0.903000000
C     0.403000000    -0.273000000     0.086000000
H    -0.430000000     0.228000000    -0.382000000
C     1.574000000     0.484000000     0.050000000
H     1.556000000     1.479000000    -0.388000000
C     2.760000000    -0.076000000     0.529000000
H     3.709000000     0.451000000     0.463000000
C     2.846000000    -1.385000000     0.925000000
C     4.136000000    -2.053000000     1.268000000
O     5.184000000    -1.474000000     0.979000000
O     4.235000000    -3.198000000     1.733000000
O     7.754000000    -4.799000000     0.924000000
H     6.861000000    -4.975000000     0.630000000
H     7.833000000    -3.845000000     0.895000000
O     9.654000000    -2.137000000    -0.174000000
H     8.781000000    -2.247000000    -0.551000000
H    10.048000000    -3.008000000    -0.226000000
O     7.557000000     2.431000000     3.178000000
H     7.756000000     1.893000000     3.945000000
H     6.627000000     2.642000000     3.268000000
O     7.078000000    -2.395000000    -0.753000000
H     6.617000000    -3.030000000    -1.302000000
H     6.382000000    -1.917000000    -0.303000000
O     6.570000000     0.701000000     0.690000000
H     6.791000000     1.025000000     1.563000000
H     6.146000000    -0.143000000     0.847000000
O     6.178000000    -8.066000000     1.606000000
H     5.315000000    -7.672000000     1.477000000
H     5.997000000    -8.904000000     2.033000000
O     5.303000000    -5.045000000     0.025000000
H     5.020000000    -4.291000000     0.542000000
H     4.848000000    -5.790000000     0.419000000
O     5.905000000    -4.194000000     3.612000000
H     5.168000000    -4.360000000     3.024000000
H     5.709000000    -3.344000000     4.007000000
O     9.784000000    -2.348000000     2.879000000
H     9.212000000    -1.626000000     3.139000000
H    10.541000000    -1.921000000     2.477000000
O     3.645000000    -7.391000000     1.085000000
H     3.468000000    -8.150000000     1.641000000
H     3.304000000    -6.646000000     1.581000000
O     5.191000000    -2.039000000     5.464000000
H     4.290000000    -1.719000000     5.507000000
H     5.306000000    -2.537000000     6.274000000
O     6.554000000    -6.027000000     5.686000000
H     6.440000000    -5.251000000     5.139000000
H     5.690000000    -6.440000000     5.701000000
O     9.007000000    -4.838000000     3.713000000
H     9.486000000    -4.101000000     3.334000000
H     8.097000000    -4.689000000     3.457000000
O     5.658000000    -4.375000000    -2.785000000
H     5.341000000    -4.985000000    -2.120000000
H     6.361000000    -4.850000000    -3.229000000
O     7.773000000     1.423000000    -1.577000000
H     7.412000000     1.114000000    -0.747000000
H     7.218000000     1.019000000    -2.245000000
O     3.579000000    -5.087000000     5.284000000
H     3.249000000    -5.806000000     5.822000000
H     3.322000000    -4.296000000     5.758000000
O     2.749000000    -5.330000000     2.695000000
H     3.023000000    -4.436000000     2.487000000
H     3.007000000    -5.453000000     3.608000000
O     7.811000000     0.491000000     5.806000000
H     7.826000000    -0.096000000     6.562000000
H     7.704000000    -0.090000000     5.053000000
O     6.930000000    -0.938000000     3.418000000
H     6.432000000    -0.978000000     2.601000000
H     6.374000000    -1.378000000     4.060000000
