215
-1439.66492
C    -1.752000000    -2.771000000     5.168000000
H    -2.565000000    -3.301000000     4.676000000
C    -1.423000000    -1.424000000     4.983000000
C    -0.233000000    -0.872000000     5.574000000
H    -0.021000000     0.182000000     5.419000000
C    -2.234000000    -0.572000000     3.999000000
O    -3.558000000    -1.187000000     3.680000000
H    -1.646000000    -0.731000000     3.084000000
O    -2.336000000     0.869000000     4.479000000
C    -2.291000000     1.874000000     3.567000000
C    -1.057000000     2.568000000     3.353000000
H    -0.177000000     2.418000000     3.974000000
C    -0.972000000     3.557000000     2.404000000
O     0.293000000     4.037000000     2.105000000
C    -2.094000000     3.917000000     1.640000000
C    -2.021000000     5.036000000     0.576000000
H    -2.965000000     5.575000000     0.469000000
C    -1.446000000     4.653000000    -0.792000000
C    -2.277000000     4.133000000    -1.754000000
H    -3.337000000     3.972000000    -1.573000000
H    -1.353000000     5.855000000     0.853000000
C    -3.332000000     3.273000000     1.846000000
H    -4.227000000     3.599000000     1.323000000
C    -3.343000000     2.192000000     2.733000000
C    -4.604000000     1.412000000     2.961000000
H    -5.425000000     2.073000000     2.677000000
H    -4.717000000     1.050000000     3.985000000
C    -4.558000000     0.223000000     1.980000000
C    -4.967000000     0.274000000     0.652000000
H    -5.332000000     1.210000000     0.238000000
C    -4.014000000    -1.025000000     2.420000000
C    -3.896000000    -2.126000000     1.524000000
H    -3.508000000    -3.018000000     2.009000000
C    -4.212000000    -1.938000000     0.157000000
O    -3.898000000    -2.980000000    -0.658000000
C    -2.734000000    -2.687000000    -1.419000000
C    -1.602000000    -3.751000000    -1.342000000
C    -0.788000000    -4.091000000    -2.452000000
H    -1.075000000    -3.769000000    -3.449000000
C    -1.126000000    -4.140000000    -0.078000000
H    -1.611000000    -3.760000000     0.817000000
O    -3.048000000    -2.309000000    -2.810000000
H    -2.380000000    -1.724000000    -1.023000000
C    -4.847000000    -0.794000000    -0.312000000
C    -5.231000000    -0.524000000    -1.793000000
H    -6.083000000     0.139000000    -1.956000000
H    -5.616000000    -1.468000000    -2.185000000
C    -4.045000000    -0.014000000    -2.634000000
C    -3.907000000     1.288000000    -2.985000000
H    -4.601000000     2.069000000    -2.686000000
C    -3.144000000    -0.941000000    -3.231000000
C    -2.212000000    -0.531000000    -4.138000000
H    -1.578000000    -1.323000000    -4.529000000
C    -2.042000000     0.803000000    -4.445000000
O    -0.862000000     1.209000000    -5.040000000
C     0.179000000     1.707000000    -4.180000000
C     1.558000000     1.178000000    -4.580000000
C     1.595000000    -0.132000000    -5.059000000
H     0.721000000    -0.772000000    -5.148000000
C     2.717000000     1.901000000    -4.459000000
H     2.714000000     2.934000000    -4.121000000
O     0.150000000     3.152000000    -4.323000000
H     0.032000000     1.371000000    -3.143000000
C    -2.875000000     1.689000000    -3.798000000
C    -2.718000000     3.213000000    -4.136000000
H    -3.744000000     3.585000000    -4.150000000
H    -2.336000000     3.308000000    -5.155000000
C    -1.848000000     3.790000000    -3.045000000
C    -0.425000000     3.817000000    -3.225000000
C     0.448000000     4.306000000    -2.323000000
H     1.510000000     4.372000000    -2.542000000
C    -0.082000000     4.616000000    -1.113000000
O     0.788000000     4.761000000    -0.018000000
C     0.894000000     3.567000000     0.894000000
H     0.295000000     2.707000000     0.562000000
C     2.344000000     3.245000000     1.260000000
C     2.656000000     2.545000000     2.423000000
H     1.839000000     2.242000000     3.073000000
C     3.457000000     3.516000000     0.435000000
H     3.198000000     4.113000000    -0.436000000
C     4.783000000     3.095000000     0.804000000
O     5.790000000     3.442000000    -0.041000000
C     4.970000000     2.340000000     1.965000000
H     5.920000000     2.060000000     2.413000000
C     3.899000000     2.015000000     2.779000000
O     4.121000000     1.116000000     3.802000000
C     3.471000000     1.089000000     5.036000000
C     2.939000000    -0.153000000     5.435000000
H     2.920000000    -1.025000000     4.788000000
C     3.485000000     2.204000000     5.885000000
H     3.866000000     3.122000000     5.444000000
C     2.932000000     2.094000000     7.184000000
H     3.069000000     2.945000000     7.847000000
C     2.383000000     0.878000000     7.625000000
H     2.167000000     0.757000000     8.683000000
C     2.302000000    -0.193000000     6.709000000
O     1.706000000    -1.373000000     7.120000000
C     0.470000000    -1.671000000     6.555000000
C     0.123000000    -3.080000000     6.588000000
H     0.635000000    -3.770000000     7.253000000
C    -0.962000000    -3.568000000     5.890000000
O    -1.140000000    -4.930000000     5.934000000
C    -1.169000000    -5.611000000     4.679000000
C    -0.220000000    -5.277000000     3.675000000
H     0.652000000    -4.647000000     3.828000000
C    -2.155000000    -6.443000000     4.437000000
H    -2.932000000    -6.693000000     5.156000000
C    -2.242000000    -7.060000000     3.214000000
H    -3.128000000    -7.679000000     3.097000000
C    -1.492000000    -6.599000000     2.129000000
H    -1.639000000    -6.955000000     1.112000000
C    -0.439000000    -5.687000000     2.340000000
O     0.377000000    -5.381000000     1.332000000
C    -0.049000000    -4.971000000     0.106000000
C     0.690000000    -5.361000000    -0.991000000
H     1.553000000    -6.006000000    -0.845000000
C     0.355000000    -4.860000000    -2.277000000
O     1.318000000    -5.219000000    -3.251000000
C     1.376000000    -4.686000000    -4.493000000
C     2.048000000    -3.449000000    -4.648000000
H     2.503000000    -3.019000000    -3.759000000
C     0.760000000    -5.327000000    -5.601000000
H     0.118000000    -6.157000000    -5.317000000
C     0.731000000    -4.740000000    -6.868000000
H     0.064000000    -5.065000000    -7.663000000
C     1.458000000    -3.566000000    -6.974000000
H     1.322000000    -3.036000000    -7.914000000
C     2.144000000    -2.944000000    -5.915000000
O     2.886000000    -1.859000000    -6.148000000
C     2.835000000    -0.690000000    -5.430000000
C     4.020000000     0.002000000    -5.248000000
H     4.888000000    -0.436000000    -5.734000000
C     3.984000000     1.360000000    -4.802000000
O     5.220000000     1.988000000    -4.658000000
C     5.305000000     2.970000000    -3.675000000
C     5.422000000     4.302000000    -4.073000000
H     5.494000000     4.457000000    -5.147000000
C     5.615000000     5.281000000    -3.092000000
H     5.780000000     6.296000000    -3.444000000
C     5.706000000     5.027000000    -1.768000000
H     5.903000000     5.872000000    -1.114000000
C     5.541000000     3.699000000    -1.346000000
C     5.277000000     2.703000000    -2.303000000
H     5.177000000     1.657000000    -2.025000000
C     1.439000000    -1.609000000     1.769000000
H     1.315000000    -1.705000000     2.844000000
C     0.693000000    -0.639000000     1.053000000
H    -0.019000000    -0.020000000     1.593000000
C     0.959000000    -0.416000000    -0.287000000
H     0.456000000     0.408000000    -0.774000000
C     1.847000000    -1.256000000    -0.926000000
H     2.044000000    -1.095000000    -1.982000000
C     2.535000000    -2.280000000    -0.272000000
H     3.171000000    -2.922000000    -0.876000000
C     2.370000000    -2.443000000     1.119000000
C     3.169000000    -3.531000000     1.815000000
O     3.925000000    -4.268000000     1.237000000
O     3.222000000    -3.570000000     3.024000000
O     6.698000000    -0.307000000     2.747000000
H     5.806000000    -0.110000000     3.032000000
H     6.724000000    -1.262000000     2.686000000
O     0.867000000    -7.058000000     6.368000000
H     1.614000000    -6.903000000     5.790000000
H     0.474000000    -6.193000000     6.488000000
O     5.443000000    -0.911000000    -2.581000000
H     4.569000000    -0.524000000    -2.526000000
H     5.284000000    -1.843000000    -2.729000000
O     5.735000000    -5.698000000     2.721000000
H     4.907000000    -5.364000000     2.375000000
H     6.226000000    -5.969000000     1.945000000
O     6.248000000    -2.996000000     1.186000000
H     5.499000000    -3.577000000     1.323000000
H     6.674000000    -3.335000000     0.399000000
O     2.767000000    -8.148000000     1.769000000
H     2.365000000    -7.821000000     2.573000000
H     2.124000000    -7.960000000     1.085000000
O     4.297000000    -6.566000000     0.253000000
H     3.826000000    -7.116000000     0.879000000
H     4.064000000    -5.671000000     0.498000000
O     7.492000000    -4.205000000    -0.922000000
H     6.792000000    -4.446000000    -1.529000000
H     8.293000000    -4.511000000    -1.347000000
O     8.096000000    -6.812000000     0.131000000
H     8.894000000    -6.735000000     0.655000000
H     7.943000000    -5.928000000    -0.204000000
O     0.661000000    -8.563000000     0.251000000
H     0.657000000    -9.126000000    -0.523000000
H    -0.014000000    -8.932000000     0.819000000
O     3.646000000    -4.076000000     6.716000000
H     3.113000000    -3.329000000     6.442000000
H     4.526000000    -3.716000000     6.822000000
O     6.007000000    -1.981000000     6.960000000
H     6.364000000    -1.094000000     6.908000000
H     5.738000000    -2.184000000     6.065000000
O     5.310000000    -6.027000000    -2.175000000
H     5.166000000    -6.866000000    -2.613000000
H     5.069000000    -6.189000000    -1.263000000
O     5.092000000    -3.508000000    -3.015000000
H     5.400000000    -3.805000000    -3.872000000
H     4.868000000    -4.313000000    -2.549000000
O     7.280000000    -0.880000000    -0.351000000
H     6.709000000    -0.436000000    -0.977000000
H     6.680000000    -1.339000000     0.237000000
O     3.103000000    -5.737000000     4.672000000
H     3.185000000    -5.014000000     4.050000000
H     3.444000000    -5.384000000     5.494000000
O     5.667000000    -7.601000000     5.230000000
H     5.198000000    -6.898000000     4.781000000
H     6.584000000    -7.326000000     5.213000000
O     5.428000000    -2.966000000     4.321000000
H     5.551000000    -3.913000000     4.258000000
H     4.550000000    -2.815000000     3.972000000
O     8.539000000    -4.043000000     2.215000000
H     7.620000000    -3.916000000     1.982000000
H     8.995000000    -3.312000000     1.797000000
