215
-1450.49124
C    -0.708000000    -1.984000000     4.717000000
H    -1.428000000    -2.640000000     4.234000000
C    -0.823000000    -0.574000000     4.635000000
C     0.169000000     0.196000000     5.193000000
H     0.073000000     1.273000000     5.085000000
C    -1.940000000    -0.003000000     3.828000000
O    -3.159000000    -0.771000000     3.832000000
H    -1.598000000     0.022000000     2.782000000
O    -2.247000000     1.357000000     4.181000000
C    -2.310000000     2.311000000     3.143000000
C    -1.197000000     2.967000000     2.675000000
H    -0.284000000     2.823000000     3.247000000
C    -1.267000000     3.987000000     1.741000000
O    -0.042000000     4.591000000     1.456000000
C    -2.424000000     4.207000000     0.983000000
C    -2.530000000     5.162000000    -0.205000000
H    -3.543000000     5.545000000    -0.346000000
C    -1.992000000     4.453000000    -1.417000000
C    -2.859000000     3.707000000    -2.167000000
H    -3.930000000     3.694000000    -1.982000000
H    -2.065000000     6.139000000    -0.056000000
C    -3.499000000     3.401000000     1.276000000
H    -4.482000000     3.574000000     0.847000000
C    -3.503000000     2.451000000     2.358000000
C    -4.698000000     1.606000000     2.615000000
H    -5.599000000     2.163000000     2.350000000
H    -4.794000000     1.458000000     3.692000000
C    -4.505000000     0.213000000     1.980000000
C    -4.997000000    -0.002000000     0.678000000
H    -5.472000000     0.803000000     0.124000000
C    -3.810000000    -0.848000000     2.684000000
C    -3.671000000    -2.025000000     2.057000000
H    -3.025000000    -2.753000000     2.542000000
C    -4.173000000    -2.241000000     0.779000000
O    -3.808000000    -3.378000000     0.157000000
C    -2.667000000    -3.157000000    -0.700000000
C    -1.671000000    -4.233000000    -0.483000000
C    -0.412000000    -4.161000000    -1.101000000
H    -0.263000000    -3.451000000    -1.910000000
C    -1.780000000    -5.192000000     0.562000000
H    -2.683000000    -5.249000000     1.163000000
O    -3.168000000    -3.191000000    -2.067000000
H    -2.162000000    -2.191000000    -0.549000000
C    -4.888000000    -1.262000000     0.095000000
C    -5.358000000    -1.539000000    -1.314000000
H    -6.327000000    -1.048000000    -1.426000000
H    -5.611000000    -2.595000000    -1.431000000
C    -4.287000000    -1.062000000    -2.306000000
C    -4.334000000     0.247000000    -2.784000000
H    -5.130000000     0.922000000    -2.481000000
C    -3.284000000    -1.938000000    -2.650000000
C    -2.250000000    -1.552000000    -3.534000000
H    -1.389000000    -2.158000000    -3.803000000
C    -2.341000000    -0.265000000    -4.028000000
O    -1.266000000     0.179000000    -4.818000000
C    -0.186000000     0.873000000    -4.240000000
C     1.157000000     0.354000000    -4.684000000
C     1.441000000    -0.974000000    -4.834000000
H     0.649000000    -1.712000000    -4.739000000
C     2.218000000     1.320000000    -4.794000000
H     2.016000000     2.332000000    -4.453000000
O    -0.399000000     2.264000000    -4.546000000
H    -0.273000000     0.727000000    -3.153000000
C    -3.294000000     0.642000000    -3.560000000
C    -3.322000000     2.119000000    -4.058000000
H    -4.323000000     2.549000000    -3.985000000
H    -3.199000000     2.072000000    -5.142000000
C    -2.346000000     2.978000000    -3.259000000
C    -1.005000000     2.977000000    -3.549000000
C    -0.097000000     3.694000000    -2.742000000
H     0.986000000     3.657000000    -2.819000000
C    -0.607000000     4.396000000    -1.717000000
O     0.299000000     4.920000000    -0.834000000
C     0.614000000     4.171000000     0.314000000
H     0.127000000     3.202000000     0.130000000
C     2.138000000     3.928000000     0.516000000
C     2.570000000     3.058000000     1.520000000
H     1.821000000     2.654000000     2.196000000
C     3.093000000     4.537000000    -0.379000000
H     2.860000000     5.254000000    -1.162000000
C     4.459000000     4.121000000    -0.246000000
O     5.397000000     4.521000000    -1.206000000
C     4.837000000     3.298000000     0.776000000
H     5.900000000     3.084000000     0.844000000
C     3.963000000     2.804000000     1.714000000
O     4.409000000     2.189000000     2.866000000
C     3.934000000     2.408000000     4.098000000
C     3.544000000     1.252000000     4.764000000
H     3.517000000     0.341000000     4.171000000
C     4.154000000     3.601000000     4.759000000
H     4.650000000     4.434000000     4.268000000
C     3.612000000     3.726000000     6.082000000
H     3.623000000     4.670000000     6.620000000
C     2.950000000     2.636000000     6.699000000
H     2.412000000     2.701000000     7.641000000
C     2.985000000     1.353000000     6.057000000
O     2.201000000     0.378000000     6.623000000
C     1.240000000    -0.364000000     5.947000000
C     1.363000000    -1.716000000     5.998000000
H     2.304000000    -2.136000000     6.343000000
C     0.448000000    -2.576000000     5.341000000
O     0.685000000    -3.914000000     5.447000000
C    -0.236000000    -4.885000000     5.066000000
C    -0.361000000    -5.245000000     3.684000000
H     0.316000000    -4.799000000     2.960000000
C    -0.870000000    -5.688000000     6.029000000
H    -0.822000000    -5.495000000     7.098000000
C    -1.398000000    -6.876000000     5.671000000
H    -1.781000000    -7.550000000     6.434000000
C    -1.500000000    -7.250000000     4.290000000
H    -2.051000000    -8.140000000     3.993000000
C    -0.986000000    -6.392000000     3.344000000
O    -0.967000000    -6.836000000     2.032000000
C    -0.771000000    -6.028000000     0.936000000
C     0.405000000    -6.035000000     0.207000000
H     1.179000000    -6.746000000     0.485000000
C     0.569000000    -5.104000000    -0.804000000
O     1.715000000    -5.049000000    -1.490000000
C     1.801000000    -4.954000000    -2.881000000
C     2.437000000    -3.835000000    -3.471000000
H     2.745000000    -3.010000000    -2.834000000
C     1.230000000    -5.945000000    -3.651000000
H     0.640000000    -6.769000000    -3.259000000
C     1.431000000    -5.959000000    -5.025000000
H     1.055000000    -6.739000000    -5.683000000
C     2.096000000    -4.867000000    -5.646000000
H     2.042000000    -4.804000000    -6.730000000
C     2.570000000    -3.806000000    -4.898000000
O     3.050000000    -2.669000000    -5.601000000
C     2.733000000    -1.354000000    -5.206000000
C     3.727000000    -0.421000000    -5.223000000
H     4.787000000    -0.662000000    -5.255000000
C     3.520000000     0.957000000    -5.075000000
O     4.576000000     1.785000000    -4.928000000
C     4.638000000     3.013000000    -4.382000000
C     4.627000000     4.143000000    -5.210000000
H     4.546000000     3.934000000    -6.274000000
C     4.985000000     5.352000000    -4.707000000
H     5.085000000     6.232000000    -5.337000000
C     5.161000000     5.486000000    -3.327000000
H     5.422000000     6.487000000    -2.995000000
C     5.067000000     4.360000000    -2.494000000
C     4.732000000     3.138000000    -3.078000000
H     4.693000000     2.227000000    -2.487000000
C     1.760000000    -2.077000000     0.907000000
H     1.625000000    -2.864000000     1.645000000
C     0.846000000    -1.006000000     0.854000000
H    -0.090000000    -1.007000000     1.407000000
C     1.085000000     0.101000000     0.027000000
H     0.300000000     0.847000000    -0.103000000
C     2.180000000     0.126000000    -0.810000000
H     2.203000000     0.908000000    -1.565000000
C     3.062000000    -0.961000000    -0.842000000
H     3.922000000    -0.983000000    -1.505000000
C     2.906000000    -1.965000000     0.077000000
C     4.091000000    -2.932000000     0.361000000
O     5.090000000    -2.879000000    -0.266000000
O     4.089000000    -3.616000000     1.336000000
O     7.380000000    -6.021000000     3.131000000
H     6.996000000    -6.167000000     2.266000000
H     6.886000000    -5.285000000     3.492000000
O     9.729000000    -2.203000000    -0.014000000
H     9.741000000    -3.157000000     0.054000000
H     9.276000000    -1.912000000     0.778000000
O     5.872000000    -2.400000000     6.058000000
H     5.121000000    -2.032000000     6.523000000
H     6.581000000    -1.777000000     6.217000000
O     3.550000000    -8.401000000    -2.660000000
H     4.245000000    -8.724000000    -3.234000000
H     3.761000000    -7.477000000    -2.526000000
O     6.693000000    -3.500000000    -5.023000000
H     6.402000000    -3.820000000    -4.168000000
H     6.815000000    -4.293000000    -5.546000000
O     6.675000000    -5.010000000     0.659000000
H     5.804000000    -5.306000000     0.395000000
H     6.593000000    -4.058000000     0.728000000
O     6.279000000    -0.590000000    -0.237000000
H     6.166000000    -0.238000000     0.646000000
H     5.688000000    -1.341000000    -0.273000000
O     9.271000000    -4.820000000    -0.104000000
H     9.787000000    -5.605000000    -0.286000000
H     8.372000000    -5.138000000    -0.021000000
O     4.132000000    -6.331000000     0.465000000
H     3.952000000    -6.824000000     1.266000000
H     3.688000000    -5.493000000     0.596000000
O     6.105000000    -3.534000000     3.533000000
H     5.349000000    -3.383000000     2.966000000
H     5.876000000    -3.106000000     4.358000000
O     8.141000000    -2.011000000     2.520000000
H     7.650000000    -2.788000000     2.788000000
H     7.507000000    -1.296000000     2.576000000
O     3.264000000    -7.946000000     2.681000000
H     2.507000000    -8.524000000     2.780000000
H     2.941000000    -7.082000000     2.937000000
O     6.054000000    -7.220000000    -1.944000000
H     5.568000000    -7.034000000    -1.141000000
H     6.359000000    -6.363000000    -2.243000000
O     3.423000000    -4.859000000     5.488000000
H     4.129000000    -5.127000000     6.077000000
H     2.700000000    -4.630000000     6.071000000
O     2.996000000    -5.413000000     2.978000000
H     3.152000000    -4.678000000     2.386000000
H     3.419000000    -5.155000000     3.797000000
O     7.003000000     1.872000000    -1.123000000
H     7.444000000     1.610000000    -1.932000000
H     6.847000000     1.050000000    -0.658000000
O     6.578000000    -3.882000000    -2.397000000
H     6.166000000    -3.776000000    -1.540000000
H     7.430000000    -3.454000000    -2.308000000
O     8.233000000    -1.562000000    -2.210000000
H     7.593000000    -1.277000000    -1.557000000
H     9.055000000    -1.634000000    -1.725000000
O     6.544000000     0.097000000     2.637000000
H     5.678000000     0.503000000     2.687000000
H     7.105000000     0.663000000     3.166000000
