215
-1446.86811
C    -1.390000000    -3.036000000     4.319000000
H    -2.197000000    -3.507000000     3.764000000
C    -1.356000000    -1.632000000     4.307000000
C    -0.206000000    -1.126000000     4.786000000
H     0.014000000    -0.067000000     4.685000000
C    -2.246000000    -0.685000000     3.519000000
O    -3.473000000    -1.387000000     3.153000000
H    -1.748000000    -0.629000000     2.540000000
O    -2.508000000     0.619000000     4.156000000
C    -2.437000000     1.685000000     3.225000000
C    -1.293000000     2.495000000     3.232000000
H    -0.469000000     2.317000000     3.918000000
C    -1.235000000     3.554000000     2.286000000
O    -0.074000000     4.309000000     2.155000000
C    -2.389000000     3.829000000     1.470000000
C    -2.405000000     4.988000000     0.447000000
H    -3.380000000     5.370000000     0.137000000
C    -1.663000000     4.573000000    -0.848000000
C    -2.469000000     3.995000000    -1.817000000
H    -3.546000000     3.974000000    -1.672000000
H    -1.927000000     5.836000000     0.942000000
C    -3.534000000     3.027000000     1.625000000
H    -4.440000000     3.292000000     1.085000000
C    -3.578000000     1.928000000     2.470000000
C    -4.834000000     1.037000000     2.354000000
H    -5.671000000     1.602000000     1.939000000
H    -5.220000000     0.818000000     3.351000000
C    -4.696000000    -0.166000000     1.472000000
C    -5.088000000    -0.105000000     0.122000000
H    -5.547000000     0.803000000    -0.260000000
C    -4.089000000    -1.353000000     1.933000000
C    -3.806000000    -2.415000000     1.071000000
H    -3.240000000    -3.293000000     1.370000000
C    -4.296000000    -2.376000000    -0.189000000
O    -3.836000000    -3.318000000    -1.074000000
C    -2.565000000    -3.055000000    -1.631000000
C    -1.678000000    -4.261000000    -1.369000000
C    -0.419000000    -4.272000000    -1.881000000
H     0.051000000    -3.469000000    -2.443000000
C    -2.110000000    -5.260000000    -0.484000000
H    -3.070000000    -5.406000000     0.005000000
O    -2.607000000    -2.778000000    -3.069000000
H    -2.131000000    -2.135000000    -1.213000000
C    -4.822000000    -1.230000000    -0.714000000
C    -5.085000000    -1.181000000    -2.224000000
H    -5.973000000    -0.577000000    -2.421000000
H    -5.525000000    -2.117000000    -2.575000000
C    -3.871000000    -0.624000000    -2.990000000
C    -3.816000000     0.751000000    -3.221000000
H    -4.622000000     1.350000000    -2.805000000
C    -2.779000000    -1.473000000    -3.445000000
C    -1.737000000    -0.852000000    -4.122000000
H    -0.951000000    -1.488000000    -4.523000000
C    -1.645000000     0.508000000    -4.375000000
O    -0.500000000     0.941000000    -4.954000000
C     0.405000000     1.808000000    -4.179000000
C     1.912000000     1.473000000    -4.310000000
C     2.259000000     0.100000000    -4.129000000
H     1.563000000    -0.734000000    -4.081000000
C     2.939000000     2.458000000    -4.255000000
H     2.694000000     3.516000000    -4.301000000
O     0.136000000     3.218000000    -4.219000000
H     0.277000000     1.620000000    -3.103000000
C    -2.708000000     1.312000000    -3.936000000
C    -2.697000000     2.813000000    -4.112000000
H    -3.716000000     3.206000000    -4.114000000
H    -2.489000000     3.143000000    -5.132000000
C    -1.873000000     3.500000000    -3.023000000
C    -0.538000000     3.730000000    -3.173000000
C     0.304000000     4.226000000    -2.191000000
H     1.371000000     4.106000000    -2.358000000
C    -0.237000000     4.625000000    -0.982000000
O     0.610000000     4.951000000    -0.006000000
C     0.786000000     3.979000000     1.017000000
H     0.654000000     2.976000000     0.586000000
C     2.231000000     3.922000000     1.457000000
C     2.636000000     3.005000000     2.380000000
H     1.929000000     2.462000000     3.002000000
C     3.244000000     4.590000000     0.698000000
H     2.938000000     5.323000000    -0.044000000
C     4.561000000     4.371000000     0.906000000
O     5.485000000     4.971000000     0.165000000
C     4.979000000     3.452000000     1.900000000
H     6.043000000     3.247000000     1.989000000
C     4.034000000     2.840000000     2.697000000
O     4.490000000     1.991000000     3.640000000
C     3.608000000     1.537000000     4.659000000
C     3.366000000     0.166000000     4.855000000
H     3.673000000    -0.624000000     4.175000000
C     3.075000000     2.494000000     5.534000000
H     3.460000000     3.510000000     5.501000000
C     2.193000000     2.198000000     6.555000000
H     1.662000000     2.847000000     7.246000000
C     1.851000000     0.809000000     6.633000000
H     1.101000000     0.545000000     7.375000000
C     2.393000000    -0.152000000     5.811000000
O     1.907000000    -1.391000000     5.885000000
C     0.701000000    -1.886000000     5.533000000
C     0.583000000    -3.284000000     5.569000000
H     1.428000000    -3.923000000     5.814000000
C    -0.497000000    -3.877000000     4.942000000
O    -0.674000000    -5.198000000     4.999000000
C    -1.502000000    -6.015000000     4.171000000
C    -1.194000000    -6.150000000     2.784000000
H    -0.332000000    -5.612000000     2.396000000
C    -2.553000000    -6.712000000     4.717000000
H    -2.782000000    -6.572000000     5.770000000
C    -3.274000000    -7.562000000     3.930000000
H    -4.026000000    -8.166000000     4.432000000
C    -2.981000000    -7.692000000     2.554000000
H    -3.447000000    -8.398000000     1.871000000
C    -1.915000000    -7.040000000     1.979000000
O    -1.553000000    -7.312000000     0.684000000
C    -1.166000000    -6.265000000    -0.123000000
C     0.144000000    -6.298000000    -0.660000000
H     0.823000000    -7.104000000    -0.394000000
C     0.525000000    -5.267000000    -1.512000000
O     1.792000000    -5.311000000    -1.981000000
C     2.128000000    -4.616000000    -3.076000000
C     2.952000000    -3.449000000    -2.925000000
H     3.258000000    -3.109000000    -1.939000000
C     1.909000000    -5.141000000    -4.361000000
H     1.433000000    -6.112000000    -4.467000000
C     2.376000000    -4.487000000    -5.504000000
H     2.134000000    -4.949000000    -6.458000000
C     3.093000000    -3.272000000    -5.335000000
H     3.430000000    -2.809000000    -6.259000000
C     3.301000000    -2.742000000    -4.089000000
O     4.026000000    -1.565000000    -3.964000000
C     3.605000000    -0.285000000    -4.124000000
C     4.602000000     0.699000000    -4.109000000
H     5.657000000     0.439000000    -4.108000000
C     4.304000000     2.068000000    -4.191000000
O     5.191000000     3.097000000    -4.241000000
C     5.186000000     4.199000000    -3.435000000
C     5.150000000     5.475000000    -3.996000000
H     4.989000000     5.592000000    -5.064000000
C     5.102000000     6.602000000    -3.126000000
H     4.908000000     7.559000000    -3.604000000
C     5.267000000     6.428000000    -1.729000000
H     5.349000000     7.248000000    -1.020000000
C     5.376000000     5.159000000    -1.222000000
C     5.312000000     4.069000000    -2.060000000
H     5.456000000     3.085000000    -1.620000000
C     0.894000000    -2.906000000     1.349000000
H     0.929000000    -3.978000000     1.528000000
C    -0.294000000    -2.218000000     1.081000000
H    -1.247000000    -2.740000000     1.088000000
C    -0.195000000    -0.900000000     0.583000000
H    -1.174000000    -0.338000000     0.452000000
C     0.979000000    -0.242000000     0.670000000
H     0.893000000     0.837000000     0.569000000
C     2.169000000    -0.882000000     1.003000000
H     3.059000000    -0.270000000     1.123000000
C     2.120000000    -2.244000000     1.384000000
C     3.381000000    -2.941000000     1.804000000
O     4.458000000    -2.384000000     1.916000000
O     3.362000000    -4.147000000     1.923000000
O     6.654000000    -6.565000000     1.588000000
H     6.016000000    -6.177000000     2.187000000
H     6.469000000    -6.155000000     0.743000000
O     8.386000000    -2.223000000     3.428000000
H     7.731000000    -2.585000000     4.024000000
H     8.064000000    -2.446000000     2.554000000
O     8.925000000     0.424000000     2.658000000
H     9.057000000    -0.480000000     2.943000000
H     8.510000000     0.345000000     1.799000000
O     5.706000000    -5.870000000     7.167000000
H     6.372000000    -5.223000000     6.931000000
H     4.955000000    -5.348000000     7.448000000
O     6.797000000    -3.738000000     1.474000000
H     6.654000000    -3.590000000     0.539000000
H     5.989000000    -3.439000000     1.890000000
O     5.430000000    -0.464000000     0.498000000
H     5.300000000    -1.154000000     1.149000000
H     4.908000000    -0.744000000    -0.254000000
O     4.841000000    -8.879000000     0.608000000
H     4.631000000    -7.990000000     0.894000000
H     3.990000000    -9.304000000     0.500000000
O     4.190000000    -5.363000000    -0.246000000
H     3.971000000    -4.967000000     0.598000000
H     3.478000000    -5.980000000    -0.413000000
O     4.162000000    -5.238000000     4.213000000
H     3.720000000    -4.895000000     3.437000000
H     3.515000000    -5.813000000     4.622000000
O     9.344000000    -4.915000000     1.219000000
H     8.952000000    -5.556000000     0.625000000
H     8.597000000    -4.454000000     1.600000000
O     2.132000000    -9.651000000     0.291000000
H     1.655000000   -10.462000000     0.468000000
H     1.981000000    -9.110000000     1.066000000
O     6.186000000    -2.568000000     6.935000000
H     5.316000000    -2.725000000     7.302000000
H     6.029000000    -2.407000000     6.005000000
O     7.855000000    -5.777000000     5.173000000
H     8.626000000    -5.209000000     5.172000000
H     7.806000000    -6.116000000     4.279000000
O     6.155000000    -3.406000000    -1.281000000
H     5.562000000    -4.157000000    -1.254000000
H     6.209000000    -3.178000000    -2.209000000
O     7.456000000     0.945000000    -0.141000000
H     6.744000000     0.309000000    -0.074000000
H     8.128000000     0.500000000    -0.655000000
O     1.805000000    -6.555000000     4.827000000
H     0.962000000    -6.150000000     5.029000000
H     1.896000000    -7.255000000     5.473000000
O     2.332000000    -7.436000000     2.089000000
H     2.849000000    -6.671000000     2.342000000
H     1.720000000    -7.562000000     2.815000000
O     5.553000000    -8.030000000     5.524000000
H     5.616000000    -7.290000000     6.128000000
H     5.531000000    -7.628000000     4.655000000
O     5.702000000    -2.990000000     4.362000000
H     5.257000000    -3.832000000     4.263000000
H     5.394000000    -2.468000000     3.622000000
