215
-1478.31924
C    -0.677000000    -2.431000000     4.740000000
H    -1.490000000    -2.911000000     4.202000000
C    -0.784000000    -1.026000000     4.950000000
C     0.232000000    -0.434000000     5.667000000
H     0.261000000     0.648000000     5.765000000
C    -1.812000000    -0.173000000     4.200000000
O    -3.057000000    -0.927000000     4.043000000
H    -1.274000000     0.027000000     3.261000000
O    -2.061000000     1.144000000     4.703000000
C    -2.099000000     2.229000000     3.788000000
C    -0.979000000     3.052000000     3.581000000
H    -0.088000000     2.930000000     4.191000000
C    -0.892000000     3.907000000     2.510000000
O     0.326000000     4.408000000     2.196000000
C    -2.080000000     4.077000000     1.674000000
C    -2.160000000     5.123000000     0.569000000
H    -3.210000000     5.236000000     0.292000000
C    -1.571000000     4.477000000    -0.665000000
C    -2.432000000     3.912000000    -1.555000000
H    -3.493000000     3.786000000    -1.354000000
H    -1.668000000     6.088000000     0.706000000
C    -3.176000000     3.258000000     1.955000000
H    -4.066000000     3.474000000     1.370000000
C    -3.188000000     2.305000000     2.936000000
C    -4.511000000     1.451000000     3.139000000
H    -5.367000000     2.038000000     2.799000000
H    -4.799000000     1.282000000     4.179000000
C    -4.487000000     0.218000000     2.367000000
C    -4.945000000     0.197000000     1.050000000
H    -5.587000000     1.018000000     0.742000000
C    -3.634000000    -0.822000000     2.780000000
C    -3.428000000    -1.955000000     1.960000000
H    -2.774000000    -2.757000000     2.291000000
C    -3.983000000    -1.920000000     0.681000000
O    -3.689000000    -3.001000000    -0.113000000
C    -2.659000000    -2.878000000    -1.130000000
C    -1.856000000    -4.134000000    -1.222000000
C    -1.231000000    -4.589000000    -2.388000000
H    -1.452000000    -4.054000000    -3.309000000
C    -1.621000000    -4.904000000    -0.065000000
H    -2.110000000    -4.725000000     0.889000000
O    -3.192000000    -2.620000000    -2.402000000
H    -1.910000000    -2.096000000    -0.936000000
C    -4.729000000    -0.869000000     0.198000000
C    -5.231000000    -0.888000000    -1.224000000
H    -6.160000000    -0.319000000    -1.295000000
H    -5.485000000    -1.946000000    -1.321000000
C    -4.199000000    -0.400000000    -2.187000000
C    -4.175000000     0.954000000    -2.552000000
H    -4.899000000     1.605000000    -2.070000000
C    -3.289000000    -1.285000000    -2.789000000
C    -2.299000000    -0.834000000    -3.683000000
H    -1.645000000    -1.465000000    -4.279000000
C    -2.260000000     0.490000000    -3.946000000
O    -1.212000000     0.929000000    -4.714000000
C     0.020000000     1.399000000    -4.052000000
C     1.336000000     0.800000000    -4.656000000
C     1.360000000    -0.583000000    -4.956000000
H     0.498000000    -1.176000000    -4.661000000
C     2.450000000     1.584000000    -4.677000000
H     2.375000000     2.596000000    -4.289000000
O     0.027000000     2.819000000    -4.110000000
H    -0.113000000     1.133000000    -2.993000000
C    -3.166000000     1.391000000    -3.398000000
C    -3.019000000     2.824000000    -3.704000000
H    -3.929000000     3.400000000    -3.527000000
H    -2.892000000     2.953000000    -4.781000000
C    -2.013000000     3.414000000    -2.811000000
C    -0.635000000     3.408000000    -3.078000000
C     0.258000000     4.035000000    -2.196000000
H     1.327000000     4.029000000    -2.398000000
C    -0.220000000     4.608000000    -1.036000000
O     0.765000000     4.896000000    -0.097000000
C     0.909000000     3.936000000     0.934000000
H     0.375000000     3.023000000     0.631000000
C     2.407000000     3.631000000     1.134000000
C     2.899000000     3.218000000     2.394000000
H     2.250000000     3.076000000     3.255000000
C     3.232000000     3.586000000     0.036000000
H     2.748000000     3.736000000    -0.925000000
C     4.610000000     3.326000000     0.147000000
O     5.479000000     3.361000000    -0.849000000
C     5.127000000     2.994000000     1.417000000
H     6.174000000     2.706000000     1.463000000
C     4.295000000     2.905000000     2.537000000
O     4.800000000     2.504000000     3.713000000
C     4.033000000     2.265000000     4.876000000
C     3.387000000     1.087000000     5.091000000
H     3.421000000     0.278000000     4.366000000
C     3.900000000     3.368000000     5.762000000
H     4.372000000     4.321000000     5.536000000
C     3.447000000     3.073000000     7.034000000
H     3.483000000     3.829000000     7.813000000
C     2.956000000     1.794000000     7.303000000
H     2.640000000     1.651000000     8.333000000
C     2.868000000     0.767000000     6.365000000
O     2.377000000    -0.466000000     6.809000000
C     1.308000000    -1.123000000     6.199000000
C     1.349000000    -2.526000000     6.111000000
H     2.173000000    -3.084000000     6.549000000
C     0.367000000    -3.152000000     5.365000000
O     0.278000000    -4.499000000     5.355000000
C    -0.379000000    -5.293000000     4.511000000
C    -0.092000000    -5.408000000     3.161000000
H     0.691000000    -4.777000000     2.749000000
C    -1.203000000    -6.250000000     5.115000000
H    -1.327000000    -6.387000000     6.186000000
C    -1.863000000    -7.130000000     4.259000000
H    -2.641000000    -7.799000000     4.618000000
C    -1.658000000    -7.224000000     2.927000000
H    -2.232000000    -7.929000000     2.331000000
C    -0.739000000    -6.331000000     2.373000000
O    -0.267000000    -6.549000000     1.084000000
C    -0.639000000    -5.952000000    -0.068000000
C     0.102000000    -6.147000000    -1.217000000
H     0.820000000    -6.960000000    -1.293000000
C    -0.252000000    -5.564000000    -2.407000000
O     0.363000000    -6.004000000    -3.591000000
C     0.321000000    -5.207000000    -4.678000000
C     1.273000000    -4.224000000    -4.665000000
H     1.961000000    -4.098000000    -3.832000000
C    -0.568000000    -5.290000000    -5.787000000
H    -1.326000000    -6.069000000    -5.773000000
C    -0.374000000    -4.434000000    -6.906000000
H    -1.057000000    -4.500000000    -7.749000000
C     0.685000000    -3.516000000    -6.909000000
H     0.759000000    -2.804000000    -7.727000000
C     1.465000000    -3.394000000    -5.762000000
O     2.502000000    -2.531000000    -5.791000000
C     2.496000000    -1.186000000    -5.425000000
C     3.623000000    -0.380000000    -5.527000000
H     4.504000000    -0.828000000    -5.979000000
C     3.657000000     0.951000000    -5.165000000
O     4.844000000     1.666000000    -5.187000000
C     4.999000000     2.804000000    -4.399000000
C     5.454000000     3.988000000    -4.932000000
H     5.615000000     4.177000000    -5.990000000
C     5.816000000     5.038000000    -4.096000000
H     6.075000000     6.001000000    -4.526000000
C     5.812000000     4.857000000    -2.674000000
H     6.158000000     5.637000000    -2.001000000
C     5.258000000     3.675000000    -2.185000000
C     4.825000000     2.646000000    -3.000000000
H     4.646000000     1.653000000    -2.598000000
C     1.513000000    -1.443000000     1.542000000
H     1.639000000    -1.351000000     2.618000000
C     0.673000000    -0.513000000     0.899000000
H     0.192000000     0.332000000     1.385000000
C     0.397000000    -0.737000000    -0.408000000
H    -0.317000000    -0.051000000    -0.902000000
C     0.841000000    -1.849000000    -1.097000000
H     0.527000000    -2.029000000    -2.121000000
C     1.716000000    -2.749000000    -0.473000000
H     2.152000000    -3.532000000    -1.088000000
C     2.094000000    -2.568000000     0.840000000
C     3.021000000    -3.527000000     1.528000000
O     3.430000000    -4.521000000     0.982000000
O     3.395000000    -3.222000000     2.652000000
O     5.791000000    -5.301000000     2.344000000
H     5.012000000    -4.936000000     1.925000000
H     5.460000000    -5.727000000     3.135000000
O     5.252000000    -1.391000000     3.752000000
H     4.670000000    -2.101000000     3.483000000
H     5.388000000    -0.878000000     2.956000000
O     5.676000000    -3.490000000    -0.734000000
H     4.921000000    -3.759000000    -0.211000000
H     5.359000000    -2.748000000    -1.249000000
O     7.907000000    -3.702000000     3.083000000
H     8.280000000    -3.768000000     3.961000000
H     7.206000000    -4.353000000     3.071000000
O     3.864000000    -4.353000000     4.866000000
H     3.623000000    -3.872000000     4.075000000
H     4.444000000    -3.758000000     5.341000000
O     4.171000000    -0.309000000    -0.809000000
H     3.310000000    -0.033000000    -0.494000000
H     4.760000000    -0.145000000    -0.072000000
O     4.837000000    -2.097000000    -2.834000000
H     4.113000000    -1.474000000    -2.769000000
H     5.409000000    -1.729000000    -3.507000000
O     8.114000000    -3.959000000     0.325000000
H     7.203000000    -3.917000000     0.032000000
H     8.060000000    -3.920000000     1.280000000
O     6.311000000    -6.760000000     0.087000000
H     5.785000000    -6.235000000    -0.516000000
H     6.300000000    -6.266000000     0.907000000
O     4.160000000    -5.887000000    -1.455000000
H     4.082000000    -6.783000000    -1.128000000
H     3.880000000    -5.339000000    -0.722000000
O     5.978000000    -8.188000000     3.762000000
H     5.183000000    -7.871000000     4.191000000
H     6.655000000    -8.125000000     4.435000000
O     1.417000000    -9.464000000     2.677000000
H     1.609000000    -8.535000000     2.547000000
H     2.260000000    -9.901000000     2.565000000
O     3.817000000    -8.288000000    -0.401000000
H     3.457000000    -8.674000000    -1.200000000
H     4.593000000    -8.814000000    -0.209000000
O     5.248000000    -2.576000000     6.189000000
H     5.335000000    -2.292000000     5.279000000
H     5.178000000    -1.763000000     6.689000000
O     2.883000000    -7.065000000     1.691000000
H     3.216000000    -7.531000000     0.924000000
H     3.131000000    -6.152000000     1.542000000
O     4.819000000    -4.751000000    -3.729000000
H     4.488000000    -5.293000000    -3.013000000
H     4.752000000    -3.854000000    -3.402000000
O     6.208000000    -0.577000000     0.973000000
H     6.862000000     0.094000000     0.779000000
H     6.660000000    -1.406000000     0.814000000
O     3.388000000    -7.269000000     4.493000000
H     3.325000000    -6.353000000     4.764000000
H     3.140000000    -7.264000000     3.569000000
O     7.935000000    -0.719000000     4.395000000
H     7.053000000    -1.089000000     4.353000000
H     8.488000000    -1.449000000     4.672000000
