215
-1432.75181
C    -2.259000000    -1.775000000     4.973000000
H    -3.175000000    -2.169000000     4.542000000
C    -1.937000000    -0.516000000     4.942000000
C    -0.816000000    -0.083000000     5.706000000
H    -0.419000000     0.927000000     5.652000000
C    -2.405000000     0.383000000     3.828000000
O    -3.791000000     0.072000000     3.500000000
H    -1.737000000     0.048000000     3.020000000
O    -2.309000000     1.846000000     4.197000000
C    -2.058000000     2.712000000     3.159000000
C    -0.782000000     3.295000000     3.029000000
H    -0.044000000     3.006000000     3.772000000
C    -0.457000000     4.121000000     1.996000000
O     0.883000000     4.462000000     1.788000000
C    -1.484000000     4.578000000     1.141000000
C    -1.186000000     5.487000000     0.039000000
H    -1.971000000     6.124000000    -0.373000000
C    -0.660000000     4.671000000    -1.131000000
C    -1.571000000     4.237000000    -2.087000000
H    -2.593000000     4.460000000    -1.792000000
H    -0.364000000     6.156000000     0.303000000
C    -2.730000000     4.077000000     1.332000000
H    -3.486000000     4.364000000     0.605000000
C    -3.014000000     3.164000000     2.300000000
C    -4.373000000     2.462000000     2.245000000
H    -5.014000000     3.157000000     1.699000000
H    -4.651000000     2.375000000     3.297000000
C    -4.442000000     1.115000000     1.529000000
C    -4.693000000     1.076000000     0.179000000
H    -5.091000000     1.964000000    -0.305000000
C    -4.072000000     0.004000000     2.180000000
C    -3.914000000    -1.273000000     1.547000000
H    -3.686000000    -2.103000000     2.211000000
C    -4.317000000    -1.295000000     0.163000000
O    -4.037000000    -2.529000000    -0.410000000
C    -2.892000000    -2.545000000    -1.263000000
C    -2.194000000    -3.859000000    -1.078000000
C    -1.678000000    -4.527000000    -2.197000000
H    -1.968000000    -4.178000000    -3.184000000
C    -1.860000000    -4.395000000     0.194000000
H    -2.288000000    -3.873000000     1.046000000
O    -3.311000000    -2.369000000    -2.703000000
H    -2.131000000    -1.779000000    -1.053000000
C    -4.734000000    -0.153000000    -0.489000000
C    -5.196000000    -0.153000000    -1.968000000
H    -5.953000000     0.620000000    -2.119000000
H    -5.704000000    -1.087000000    -2.216000000
C    -3.944000000    -0.053000000    -2.825000000
C    -3.663000000     1.192000000    -3.295000000
H    -4.188000000     2.044000000    -2.869000000
C    -3.161000000    -1.149000000    -3.175000000
C    -2.049000000    -0.943000000    -3.917000000
H    -1.443000000    -1.821000000    -4.129000000
C    -1.674000000     0.396000000    -4.263000000
O    -0.450000000     0.579000000    -4.798000000
C     0.529000000     1.126000000    -3.999000000
C     1.842000000     0.347000000    -4.054000000
C     1.786000000    -1.044000000    -4.305000000
H     0.842000000    -1.569000000    -4.425000000
C     3.107000000     0.879000000    -3.966000000
H     3.268000000     1.932000000    -3.751000000
O     0.741000000     2.490000000    -4.337000000
H     0.198000000     0.982000000    -2.960000000
C    -2.519000000     1.465000000    -3.993000000
C    -2.100000000     2.912000000    -4.241000000
H    -2.989000000     3.534000000    -4.368000000
H    -1.581000000     2.875000000    -5.201000000
C    -1.140000000     3.548000000    -3.239000000
C     0.233000000     3.346000000    -3.414000000
C     1.175000000     3.781000000    -2.473000000
H     2.228000000     3.546000000    -2.609000000
C     0.702000000     4.475000000    -1.312000000
O     1.639000000     4.681000000    -0.359000000
C     1.555000000     3.766000000     0.740000000
H     0.986000000     2.924000000     0.320000000
C     2.960000000     3.317000000     1.183000000
C     3.188000000     2.670000000     2.399000000
H     2.329000000     2.573000000     3.058000000
C     3.998000000     3.457000000     0.331000000
H     3.824000000     3.913000000    -0.641000000
C     5.279000000     3.016000000     0.775000000
O     6.367000000     3.158000000    -0.100000000
C     5.484000000     2.259000000     1.923000000
H     6.459000000     1.836000000     2.150000000
C     4.427000000     2.093000000     2.770000000
O     4.498000000     1.277000000     3.936000000
C     3.585000000     1.445000000     4.945000000
C     2.854000000     0.316000000     5.344000000
H     2.991000000    -0.647000000     4.860000000
C     3.450000000     2.617000000     5.480000000
H     3.971000000     3.460000000     5.033000000
C     2.617000000     2.740000000     6.604000000
H     2.513000000     3.660000000     7.174000000
C     1.873000000     1.635000000     7.009000000
H     1.186000000     1.850000000     7.824000000
C     2.018000000     0.420000000     6.405000000
O     1.261000000    -0.640000000     6.844000000
C     0.020000000    -1.014000000     6.365000000
C    -0.275000000    -2.327000000     6.442000000
H     0.408000000    -3.067000000     6.852000000
C    -1.444000000    -2.676000000     5.692000000
O    -1.910000000    -3.973000000     5.872000000
C    -2.021000000    -4.954000000     4.885000000
C    -1.306000000    -4.912000000     3.678000000
H    -0.531000000    -4.153000000     3.604000000
C    -2.942000000    -6.047000000     5.071000000
H    -3.498000000    -6.167000000     5.998000000
C    -3.007000000    -7.110000000     4.152000000
H    -3.712000000    -7.919000000     4.326000000
C    -2.296000000    -6.958000000     2.969000000
H    -2.214000000    -7.813000000     2.303000000
C    -1.419000000    -5.872000000     2.708000000
O    -0.562000000    -5.819000000     1.581000000
C    -0.967000000    -5.451000000     0.358000000
C    -0.416000000    -6.081000000    -0.760000000
H     0.341000000    -6.839000000    -0.573000000
C    -0.802000000    -5.672000000    -2.023000000
O    -0.170000000    -6.269000000    -3.077000000
C     0.271000000    -5.607000000    -4.168000000
C     1.286000000    -4.669000000    -4.089000000
H     1.736000000    -4.401000000    -3.136000000
C    -0.272000000    -5.875000000    -5.400000000
H    -1.028000000    -6.645000000    -5.525000000
C     0.156000000    -5.157000000    -6.501000000
H    -0.311000000    -5.436000000    -7.442000000
C     1.079000000    -4.130000000    -6.427000000
H     1.410000000    -3.677000000    -7.358000000
C     1.685000000    -3.893000000    -5.158000000
O     2.782000000    -3.172000000    -4.997000000
C     2.915000000    -1.845000000    -4.578000000
C     4.173000000    -1.224000000    -4.479000000
H     5.031000000    -1.837000000    -4.743000000
C     4.235000000     0.164000000    -4.150000000
O     5.492000000     0.786000000    -4.100000000
C     5.699000000     2.058000000    -3.510000000
C     5.715000000     3.299000000    -4.280000000
H     5.699000000     3.394000000    -5.363000000
C     6.007000000     4.457000000    -3.570000000
H     6.062000000     5.381000000    -4.140000000
C     6.207000000     4.403000000    -2.212000000
H     6.355000000     5.377000000    -1.754000000
C     6.194000000     3.195000000    -1.483000000
C     5.826000000     2.077000000    -2.140000000
H     5.806000000     1.156000000    -1.563000000
C     1.714000000    -1.648000000     2.311000000
H     1.986000000    -1.991000000     3.306000000
C     0.947000000    -0.483000000     2.061000000
H     0.821000000     0.285000000     2.820000000
C     0.497000000    -0.270000000     0.802000000
H    -0.161000000     0.589000000     0.674000000
C     0.807000000    -1.181000000    -0.241000000
H     0.362000000    -0.988000000    -1.214000000
C     1.566000000    -2.234000000    -0.055000000
H     1.859000000    -2.907000000    -0.857000000
C     2.104000000    -2.453000000     1.278000000
C     2.960000000    -3.697000000     1.433000000
O     3.423000000    -4.311000000     0.498000000
O     3.351000000    -3.963000000     2.525000000
O     5.810000000    -5.388000000     1.873000000
H     5.701000000    -5.446000000     2.822000000
H     5.031000000    -4.922000000     1.570000000
O     4.381000000    -2.908000000     4.881000000
H     4.158000000    -3.460000000     4.131000000
H     4.789000000    -3.507000000     5.506000000
O     4.689000000    -3.597000000    -1.664000000
H     4.151000000    -3.890000000    -0.929000000
H     5.090000000    -2.783000000    -1.359000000
O     7.908000000    -2.642000000     3.741000000
H     7.650000000    -3.561000000     3.818000000
H     7.138000000    -2.152000000     4.030000000
O     3.877000000    -5.064000000     6.676000000
H     2.925000000    -5.000000000     6.594000000
H     4.126000000    -5.745000000     6.051000000
O     4.848000000    -0.543000000     0.985000000
H     3.963000000    -0.239000000     0.783000000
H     4.834000000    -0.709000000     1.928000000
O     6.645000000    -1.896000000    -0.625000000
H     6.146000000    -1.368000000    -0.001000000
H     7.523000000    -1.946000000    -0.248000000
O     5.103000000    -7.860000000     0.073000000
H     4.250000000    -7.472000000    -0.120000000
H     5.501000000    -7.262000000     0.705000000
O     2.989000000    -6.596000000    -0.971000000
H     3.066000000    -6.394000000    -1.903000000
H     3.112000000    -5.754000000    -0.532000000
O     5.887000000    -9.025000000     2.513000000
H     5.590000000    -8.757000000     1.643000000
H     5.520000000    -9.901000000     2.632000000
O     6.874000000    -4.878000000     5.240000000
H     6.502000000    -4.837000000     6.121000000
H     7.682000000    -5.381000000     5.344000000
O     8.514000000    -4.977000000     1.393000000
H     7.566000000    -4.848000000     1.368000000
H     8.724000000    -5.031000000     2.325000000
O     1.665000000    -8.936000000     1.673000000
H     1.753000000    -8.666000000     0.759000000
H     2.415000000    -9.511000000     1.826000000
O     6.295000000    -0.767000000     5.025000000
H     5.585000000    -1.409000000     5.025000000
H     5.902000000     0.024000000     5.393000000
O     2.106000000    -6.309000000     3.204000000
H     1.576000000    -6.791000000     2.569000000
H     2.512000000    -5.608000000     2.694000000
O     4.694000000    -5.109000000    -4.036000000
H     4.823000000    -4.651000000    -3.205000000
H     4.123000000    -4.531000000    -4.542000000
O     1.271000000    -5.412000000     5.610000000
H     0.356000000    -5.400000000     5.328000000
H     1.765000000    -5.606000000     4.814000000
O     7.780000000    -3.718000000    -2.395000000
H     7.905000000    -4.474000000    -1.821000000
H     7.394000000    -3.050000000    -1.829000000
O     4.323000000    -7.261000000     4.456000000
H     3.513000000    -7.209000000     3.949000000
H     4.918000000    -7.771000000     3.905000000
