215
-1478.52650
C    -0.705000000    -1.709000000     4.844000000
H    -1.632000000    -2.263000000     4.715000000
C    -0.520000000    -0.371000000     4.544000000
C     0.681000000     0.196000000     4.902000000
H     0.976000000     1.196000000     4.594000000
C    -1.568000000     0.423000000     3.778000000
O    -2.802000000    -0.236000000     3.765000000
H    -1.254000000     0.396000000     2.724000000
O    -1.825000000     1.728000000     4.272000000
C    -1.914000000     2.669000000     3.259000000
C    -0.862000000     3.454000000     2.910000000
H     0.001000000     3.452000000     3.571000000
C    -0.847000000     4.253000000     1.815000000
O     0.294000000     4.895000000     1.421000000
C    -1.982000000     4.390000000     1.024000000
C    -2.046000000     5.300000000    -0.166000000
H    -3.094000000     5.599000000    -0.236000000
C    -1.572000000     4.646000000    -1.455000000
C    -2.480000000     4.075000000    -2.374000000
H    -3.539000000     4.161000000    -2.145000000
H    -1.466000000     6.197000000     0.060000000
C    -3.070000000     3.689000000     1.379000000
H    -3.954000000     3.809000000     0.758000000
C    -3.129000000     2.814000000     2.491000000
C    -4.318000000     1.911000000     2.748000000
H    -5.234000000     2.401000000     2.411000000
H    -4.672000000     1.756000000     3.769000000
C    -4.264000000     0.620000000     2.050000000
C    -4.863000000     0.486000000     0.803000000
H    -5.473000000     1.286000000     0.391000000
C    -3.486000000    -0.396000000     2.591000000
C    -3.470000000    -1.668000000     2.016000000
H    -3.080000000    -2.561000000     2.497000000
C    -4.124000000    -1.837000000     0.810000000
O    -3.843000000    -3.028000000     0.234000000
C    -2.800000000    -3.015000000    -0.789000000
C    -1.905000000    -4.229000000    -0.713000000
C    -1.421000000    -4.823000000    -1.824000000
H    -1.780000000    -4.540000000    -2.810000000
C    -1.545000000    -4.685000000     0.529000000
H    -1.846000000    -4.162000000     1.434000000
O    -3.429000000    -2.848000000    -2.081000000
H    -2.238000000    -2.081000000    -0.641000000
C    -4.840000000    -0.794000000     0.221000000
C    -5.468000000    -0.942000000    -1.177000000
H    -6.271000000    -0.203000000    -1.123000000
H    -5.809000000    -1.976000000    -1.261000000
C    -4.419000000    -0.618000000    -2.209000000
C    -4.227000000     0.725000000    -2.637000000
H    -4.946000000     1.491000000    -2.360000000
C    -3.511000000    -1.594000000    -2.624000000
C    -2.447000000    -1.312000000    -3.409000000
H    -1.716000000    -2.041000000    -3.749000000
C    -2.318000000    -0.028000000    -3.904000000
O    -1.240000000     0.203000000    -4.697000000
C    -0.083000000     0.836000000    -4.151000000
C     1.129000000     0.057000000    -4.449000000
C     1.075000000    -1.301000000    -4.763000000
H     0.193000000    -1.924000000    -4.890000000
C     2.398000000     0.662000000    -4.297000000
H     2.475000000     1.708000000    -4.011000000
O    -0.120000000     2.257000000    -4.562000000
H    -0.236000000     0.759000000    -3.064000000
C    -3.145000000     1.035000000    -3.497000000
C    -3.089000000     2.427000000    -4.139000000
H    -4.095000000     2.847000000    -4.072000000
H    -2.716000000     2.337000000    -5.161000000
C    -2.065000000     3.313000000    -3.445000000
C    -0.619000000     3.192000000    -3.667000000
C     0.290000000     3.814000000    -2.814000000
H     1.372000000     3.781000000    -2.907000000
C    -0.190000000     4.471000000    -1.725000000
O     0.822000000     4.836000000    -0.827000000
C     1.049000000     4.135000000     0.464000000
H     0.791000000     3.068000000     0.398000000
C     2.506000000     4.097000000     0.794000000
C     2.932000000     3.868000000     2.129000000
H     2.118000000     3.753000000     2.839000000
C     3.469000000     4.072000000    -0.210000000
H     3.202000000     4.190000000    -1.257000000
C     4.812000000     3.693000000     0.088000000
O     5.818000000     3.598000000    -0.846000000
C     5.221000000     3.688000000     1.405000000
H     6.271000000     3.472000000     1.583000000
C     4.251000000     3.718000000     2.406000000
O     4.690000000     3.807000000     3.690000000
C     4.141000000     3.190000000     4.756000000
C     3.984000000     1.846000000     4.847000000
H     4.359000000     1.172000000     4.081000000
C     3.871000000     3.943000000     5.905000000
H     4.024000000     5.019000000     5.912000000
C     3.349000000     3.373000000     7.035000000
H     3.155000000     3.852000000     7.992000000
C     3.017000000     2.031000000     7.017000000
H     2.571000000     1.532000000     7.873000000
C     3.324000000     1.247000000     5.890000000
O     2.999000000    -0.072000000     5.793000000
C     1.725000000    -0.564000000     5.553000000
C     1.534000000    -1.893000000     5.729000000
H     2.363000000    -2.507000000     6.073000000
C     0.279000000    -2.478000000     5.442000000
O     0.067000000    -3.750000000     5.895000000
C    -0.605000000    -4.734000000     5.174000000
C    -0.254000000    -4.894000000     3.822000000
H     0.430000000    -4.255000000     3.271000000
C    -1.531000000    -5.615000000     5.766000000
H    -1.884000000    -5.444000000     6.780000000
C    -1.974000000    -6.723000000     5.068000000
H    -2.704000000    -7.407000000     5.493000000
C    -1.586000000    -6.956000000     3.762000000
H    -1.988000000    -7.778000000     3.176000000
C    -0.783000000    -6.029000000     3.099000000
O    -0.316000000    -6.359000000     1.873000000
C    -0.681000000    -5.839000000     0.660000000
C    -0.209000000    -6.434000000    -0.508000000
H     0.559000000    -7.197000000    -0.416000000
C    -0.542000000    -5.880000000    -1.728000000
O    -0.109000000    -6.470000000    -2.783000000
C     0.038000000    -5.788000000    -3.998000000
C     1.105000000    -4.912000000    -4.049000000
H     1.728000000    -4.680000000    -3.189000000
C    -0.759000000    -6.021000000    -5.105000000
H    -1.597000000    -6.683000000    -4.903000000
C    -0.525000000    -5.371000000    -6.345000000
H    -1.065000000    -5.682000000    -7.236000000
C     0.466000000    -4.465000000    -6.383000000
H     0.773000000    -3.942000000    -7.286000000
C     1.314000000    -4.236000000    -5.259000000
O     2.306000000    -3.342000000    -5.274000000
C     2.268000000    -2.031000000    -4.887000000
C     3.525000000    -1.399000000    -4.733000000
H     4.403000000    -1.986000000    -4.992000000
C     3.591000000    -0.018000000    -4.507000000
O     4.801000000     0.599000000    -4.616000000
C     5.115000000     1.877000000    -4.063000000
C     5.387000000     2.939000000    -4.971000000
H     5.328000000     2.805000000    -6.048000000
C     5.711000000     4.196000000    -4.502000000
H     5.904000000     5.050000000    -5.145000000
C     5.963000000     4.428000000    -3.150000000
H     6.213000000     5.390000000    -2.709000000
C     5.715000000     3.394000000    -2.258000000
C     5.310000000     2.114000000    -2.731000000
H     5.158000000     1.338000000    -1.985000000
C     1.682000000    -1.877000000     1.721000000
H     2.017000000    -1.935000000     2.754000000
C     1.146000000    -0.693000000     1.159000000
H     0.945000000     0.201000000     1.743000000
C     0.859000000    -0.605000000    -0.166000000
H     0.343000000     0.306000000    -0.567000000
C     0.975000000    -1.711000000    -0.945000000
H     0.613000000    -1.611000000    -1.965000000
C     1.506000000    -2.926000000    -0.438000000
H     1.615000000    -3.813000000    -1.058000000
C     1.903000000    -2.986000000     0.893000000
C     2.451000000    -4.276000000     1.452000000
O     2.636000000    -5.289000000     0.792000000
O     2.835000000    -4.291000000     2.595000000
O     4.809000000    -6.432000000     2.613000000
H     4.080000000    -5.817000000     2.533000000
H     4.414000000    -7.225000000     2.974000000
O     5.307000000    -9.793000000     0.218000000
H     5.004000000   -10.187000000     1.036000000
H     4.726000000    -9.044000000     0.083000000
O     4.082000000    -2.702000000     4.193000000
H     3.505000000    -3.171000000     3.591000000
H     4.798000000    -2.386000000     3.642000000
O     5.601000000    -4.428000000     0.059000000
H     4.706000000    -4.749000000     0.171000000
H     5.570000000    -3.905000000    -0.742000000
O     3.042000000    -5.615000000     4.903000000
H     3.031000000    -5.099000000     4.097000000
H     3.670000000    -5.164000000     5.468000000
O     7.019000000    -6.506000000     4.155000000
H     6.941000000    -6.386000000     5.102000000
H     6.151000000    -6.289000000     3.814000000
O     4.139000000    -0.674000000    -1.070000000
H     3.284000000    -1.093000000    -1.167000000
H     4.165000000    -0.390000000    -0.156000000
O     5.759000000    -2.458000000    -2.240000000
H     5.166000000    -1.760000000    -1.962000000
H     6.492000000    -2.000000000    -2.651000000
O     6.562000000    -6.774000000    -0.627000000
H     7.144000000    -6.947000000     0.113000000
H     6.280000000    -5.868000000    -0.504000000
O     3.436000000    -5.300000000    -1.629000000
H     3.334000000    -6.191000000    -1.963000000
H     2.921000000    -5.286000000    -0.822000000
O     6.945000000    -2.755000000     1.707000000
H     7.396000000    -3.276000000     2.372000000
H     6.508000000    -3.401000000     1.153000000
O     1.337000000   -10.220000000     0.920000000
H     0.548000000   -10.320000000     0.388000000
H     1.757000000    -9.429000000     0.580000000
O     5.176000000    -2.365000000     6.920000000
H     4.615000000    -2.404000000     6.146000000
H     5.997000000    -2.771000000     6.642000000
O     2.869000000    -7.890000000     0.119000000
H     2.882000000    -7.865000000    -0.837000000
H     2.917000000    -6.971000000     0.384000000
O     2.043000000   -10.081000000     3.521000000
H     1.776000000   -10.253000000     2.618000000
H     2.091000000    -9.127000000     3.580000000
O     5.107000000    -4.427000000    -3.996000000
H     4.358000000    -4.685000000    -3.459000000
H     5.457000000    -3.650000000    -3.562000000
O     3.737000000    -7.342000000     6.929000000
H     3.155000000    -7.381000000     7.688000000
H     3.172000000    -7.068000000     6.207000000
O     4.990000000    -0.299000000     1.506000000
H     5.538000000     0.373000000     1.913000000
H     5.583000000    -1.037000000     1.365000000
O     2.122000000    -7.543000000     3.111000000
H     2.270000000    -6.802000000     3.697000000
H     1.947000000    -7.144000000     2.259000000
