215
-1461.66231
C    -1.978000000    -2.304000000     4.878000000
H    -2.914000000    -2.655000000     4.451000000
C    -1.546000000    -0.972000000     4.675000000
C    -0.303000000    -0.622000000     5.108000000
H     0.168000000     0.312000000     4.814000000
C    -2.320000000    -0.078000000     3.773000000
O    -3.621000000    -0.430000000     3.504000000
H    -1.817000000    -0.169000000     2.799000000
O    -2.308000000     1.306000000     4.290000000
C    -2.167000000     2.267000000     3.319000000
C    -0.908000000     2.910000000     3.224000000
H    -0.239000000     2.567000000     4.009000000
C    -0.686000000     3.863000000     2.239000000
O     0.651000000     4.314000000     2.085000000
C    -1.679000000     4.348000000     1.441000000
C    -1.406000000     5.232000000     0.236000000
H    -2.298000000     5.769000000    -0.094000000
C    -0.855000000     4.464000000    -0.965000000
C    -1.683000000     3.951000000    -1.970000000
H    -2.752000000     3.941000000    -1.771000000
H    -0.628000000     5.925000000     0.563000000
C    -2.926000000     3.692000000     1.467000000
H    -3.658000000     4.047000000     0.746000000
C    -3.169000000     2.646000000     2.392000000
C    -4.504000000     2.044000000     2.479000000
H    -5.200000000     2.734000000     1.999000000
H    -4.723000000     1.822000000     3.526000000
C    -4.553000000     0.678000000     1.646000000
C    -4.908000000     0.701000000     0.310000000
H    -5.416000000     1.563000000    -0.116000000
C    -4.142000000    -0.526000000     2.208000000
C    -4.106000000    -1.685000000     1.480000000
H    -3.744000000    -2.585000000     1.971000000
C    -4.444000000    -1.657000000     0.130000000
O    -4.199000000    -2.698000000    -0.701000000
C    -3.002000000    -2.627000000    -1.424000000
C    -2.310000000    -3.952000000    -1.205000000
C    -1.423000000    -4.339000000    -2.178000000
H    -1.338000000    -3.722000000    -3.069000000
C    -2.312000000    -4.700000000    -0.016000000
H    -2.819000000    -4.259000000     0.839000000
O    -3.276000000    -2.368000000    -2.816000000
H    -2.335000000    -1.860000000    -1.001000000
C    -4.914000000    -0.467000000    -0.446000000
C    -5.137000000    -0.376000000    -1.996000000
H    -5.900000000     0.391000000    -2.144000000
H    -5.655000000    -1.253000000    -2.391000000
C    -3.953000000    -0.061000000    -2.848000000
C    -3.594000000     1.262000000    -3.149000000
H    -4.219000000     2.107000000    -2.874000000
C    -3.027000000    -1.073000000    -3.210000000
C    -1.811000000    -0.765000000    -3.825000000
H    -1.097000000    -1.567000000    -3.990000000
C    -1.593000000     0.480000000    -4.233000000
O    -0.360000000     0.742000000    -4.856000000
C     0.715000000     1.305000000    -4.062000000
C     2.007000000     0.618000000    -4.429000000
C     2.096000000    -0.756000000    -4.581000000
H     1.179000000    -1.327000000    -4.459000000
C     3.174000000     1.303000000    -4.135000000
H     3.222000000     2.309000000    -3.726000000
O     0.742000000     2.693000000    -4.341000000
H     0.519000000     1.073000000    -3.004000000
C    -2.411000000     1.525000000    -3.876000000
C    -2.069000000     2.973000000    -4.201000000
H    -3.027000000     3.497000000    -4.215000000
H    -1.727000000     3.097000000    -5.231000000
C    -1.144000000     3.616000000    -3.189000000
C     0.252000000     3.464000000    -3.365000000
C     1.057000000     3.735000000    -2.260000000
H     2.142000000     3.682000000    -2.284000000
C     0.536000000     4.379000000    -1.179000000
O     1.416000000     4.738000000    -0.152000000
C     1.408000000     3.806000000     0.960000000
H     0.951000000     2.867000000     0.616000000
C     2.888000000     3.539000000     1.306000000
C     3.228000000     3.073000000     2.610000000
H     2.480000000     2.781000000     3.342000000
C     3.867000000     3.714000000     0.356000000
H     3.638000000     4.129000000    -0.623000000
C     5.168000000     3.454000000     0.684000000
O     6.165000000     3.791000000    -0.219000000
C     5.525000000     2.785000000     1.894000000
H     6.562000000     2.528000000     2.096000000
C     4.510000000     2.568000000     2.841000000
O     4.845000000     1.904000000     4.031000000
C     3.940000000     1.549000000     5.003000000
C     3.308000000     0.321000000     5.000000000
H     3.587000000    -0.380000000     4.217000000
C     3.725000000     2.448000000     6.036000000
H     4.085000000     3.467000000     5.927000000
C     2.895000000     2.090000000     7.050000000
H     2.805000000     2.874000000     7.798000000
C     2.237000000     0.882000000     7.082000000
H     1.508000000     0.627000000     7.847000000
C     2.437000000    -0.012000000     6.035000000
O     1.899000000    -1.287000000     6.041000000
C     0.543000000    -1.569000000     5.740000000
C     0.070000000    -2.848000000     5.979000000
H     0.656000000    -3.588000000     6.519000000
C    -1.260000000    -3.219000000     5.587000000
O    -1.716000000    -4.480000000     5.761000000
C    -2.145000000    -5.232000000     4.774000000
C    -1.605000000    -5.245000000     3.484000000
H    -0.856000000    -4.526000000     3.162000000
C    -3.142000000    -6.153000000     5.160000000
H    -3.526000000    -6.173000000     6.177000000
C    -3.668000000    -6.958000000     4.215000000
H    -4.533000000    -7.580000000     4.432000000
C    -3.109000000    -7.069000000     2.936000000
H    -3.622000000    -7.628000000     2.156000000
C    -2.021000000    -6.193000000     2.614000000
O    -1.434000000    -6.481000000     1.394000000
C    -1.426000000    -5.729000000     0.208000000
C    -0.650000000    -6.256000000    -0.873000000
H     0.068000000    -7.037000000    -0.634000000
C    -0.707000000    -5.550000000    -2.093000000
O     0.303000000    -5.885000000    -2.979000000
C     0.719000000    -5.123000000    -4.104000000
C     1.887000000    -4.415000000    -3.950000000
H     2.451000000    -4.338000000    -3.024000000
C    -0.098000000    -4.973000000    -5.261000000
H    -0.960000000    -5.607000000    -5.455000000
C     0.371000000    -4.227000000    -6.346000000
H    -0.047000000    -4.279000000    -7.348000000
C     1.537000000    -3.495000000    -6.210000000
H     1.861000000    -2.865000000    -7.034000000
C     2.307000000    -3.594000000    -5.041000000
O     3.405000000    -2.805000000    -4.847000000
C     3.376000000    -1.469000000    -4.724000000
C     4.521000000    -0.693000000    -4.699000000
H     5.479000000    -1.170000000    -4.888000000
C     4.453000000     0.637000000    -4.252000000
O     5.611000000     1.389000000    -4.274000000
C     5.698000000     2.656000000    -3.704000000
C     5.289000000     3.819000000    -4.352000000
H     5.010000000     3.807000000    -5.402000000
C     5.316000000     5.022000000    -3.577000000
H     5.083000000     5.968000000    -4.058000000
C     5.518000000     5.043000000    -2.199000000
H     5.329000000     5.985000000    -1.691000000
C     5.953000000     3.895000000    -1.594000000
C     6.055000000     2.676000000    -2.374000000
H     6.361000000     1.736000000    -1.921000000
C     2.491000000    -1.274000000     0.980000000
H     3.155000000    -1.207000000     1.838000000
C     1.590000000    -0.186000000     0.950000000
H     1.670000000     0.640000000     1.651000000
C     0.485000000    -0.206000000     0.078000000
H    -0.346000000     0.472000000     0.263000000
C     0.391000000    -1.261000000    -0.866000000
H    -0.445000000    -1.243000000    -1.560000000
C     1.298000000    -2.306000000    -0.848000000
H     1.205000000    -3.107000000    -1.577000000
C     2.377000000    -2.358000000     0.087000000
C     3.272000000    -3.526000000     0.122000000
O     3.177000000    -4.498000000    -0.590000000
O     4.034000000    -3.614000000     1.095000000
O     6.609000000    -3.684000000     1.289000000
H     5.676000000    -3.869000000     1.180000000
H     6.660000000    -2.730000000     1.342000000
O     3.628000000    -3.549000000     3.670000000
H     3.710000000    -3.623000000     2.719000000
H     4.530000000    -3.562000000     3.990000000
O     5.154000000    -4.669000000    -2.318000000
H     4.440000000    -4.507000000    -1.701000000
H     5.680000000    -3.869000000    -2.291000000
O     5.622000000    -1.054000000     2.382000000
H     5.377000000    -1.816000000     2.907000000
H     5.974000000    -0.429000000     3.017000000
O     6.081000000    -0.502000000    -0.373000000
H     6.856000000    -0.504000000     0.189000000
H     5.364000000    -0.250000000     0.208000000
O     6.426000000    -2.263000000    -2.365000000
H     5.941000000    -1.474000000    -2.122000000
H     7.061000000    -2.380000000    -1.659000000
O     6.625000000    -6.617000000     0.222000000
H     6.472000000    -6.393000000     1.140000000
H     5.933000000    -6.159000000    -0.255000000
O     7.214000000    -6.593000000    -2.720000000
H     7.547000000    -5.938000000    -3.333000000
H     6.574000000    -6.121000000    -2.188000000
O     3.345000000    -7.088000000    -0.934000000
H     2.761000000    -7.583000000    -0.359000000
H     3.216000000    -6.175000000    -0.677000000
O     4.888000000    -9.566000000    -0.520000000
H     4.792000000    -8.662000000    -0.819000000
H     3.999000000    -9.843000000    -0.302000000
O     8.035000000    -4.921000000     3.313000000
H     7.751000000    -4.724000000     2.420000000
H     8.988000000    -4.834000000     3.285000000
O     6.247000000    -3.127000000     4.487000000
H     6.251000000    -3.462000000     5.384000000
H     6.937000000    -3.622000000     4.044000000
O     8.127000000    -4.303000000    -0.945000000
H     7.545000000    -4.068000000    -0.222000000
H     8.722000000    -4.953000000    -0.572000000
O     1.923000000    -7.979000000     1.088000000
H     1.733000000    -7.706000000     1.986000000
H     1.918000000    -8.936000000     1.122000000
O     4.343000000    -6.171000000     1.773000000
H     3.680000000    -6.813000000     1.522000000
H     3.979000000    -5.330000000     1.497000000
O     4.055000000    -6.566000000    -3.661000000
H     4.569000000    -5.885000000    -3.227000000
H     3.610000000    -7.021000000    -2.946000000
O     2.156000000    -5.170000000     5.336000000
H     1.690000000    -5.739000000     4.724000000
H     2.524000000    -4.478000000     4.788000000
O     6.357000000    -3.770000000    -5.273000000
H     6.963000000    -3.938000000    -4.552000000
H     5.590000000    -3.379000000    -4.855000000
O     5.567000000    -6.594000000     4.525000000
H     5.083000000    -6.393000000     3.724000000
H     6.469000000    -6.724000000     4.233000000
