215
-1473.22456
C    -0.343000000    -2.101000000     3.966000000
H    -1.200000000    -2.593000000     3.513000000
C    -0.412000000    -0.709000000     4.055000000
C     0.698000000    -0.016000000     4.499000000
H     0.637000000     1.065000000     4.596000000
C    -1.664000000     0.051000000     3.648000000
O    -2.863000000    -0.684000000     3.852000000
H    -1.526000000     0.014000000     2.557000000
O    -1.760000000     1.388000000     4.137000000
C    -2.069000000     2.356000000     3.193000000
C    -1.001000000     3.140000000     2.836000000
H    -0.028000000     2.977000000     3.292000000
C    -1.108000000     4.080000000     1.805000000
O    -0.056000000     4.818000000     1.422000000
C    -2.302000000     4.210000000     1.132000000
C    -2.327000000     5.118000000    -0.112000000
H    -3.359000000     5.464000000    -0.196000000
C    -1.804000000     4.536000000    -1.441000000
C    -2.634000000     3.868000000    -2.295000000
H    -3.665000000     3.780000000    -1.962000000
H    -1.821000000     6.056000000     0.126000000
C    -3.355000000     3.345000000     1.356000000
H    -4.207000000     3.392000000     0.683000000
C    -3.275000000     2.481000000     2.536000000
C    -4.477000000     1.585000000     2.927000000
H    -5.391000000     2.143000000     2.715000000
H    -4.528000000     1.536000000     4.017000000
C    -4.457000000     0.212000000     2.323000000
C    -5.071000000     0.084000000     1.070000000
H    -5.465000000     0.982000000     0.601000000
C    -3.691000000    -0.837000000     2.813000000
C    -3.771000000    -2.057000000     2.166000000
H    -3.091000000    -2.857000000     2.449000000
C    -4.346000000    -2.208000000     0.879000000
O    -4.201000000    -3.320000000     0.237000000
C    -3.144000000    -3.342000000    -0.732000000
C    -2.355000000    -4.715000000    -0.525000000
C    -1.418000000    -5.101000000    -1.531000000
H    -1.339000000    -4.479000000    -2.419000000
C    -2.405000000    -5.491000000     0.692000000
H    -3.063000000    -5.193000000     1.504000000
O    -3.586000000    -3.121000000    -2.047000000
H    -2.329000000    -2.620000000    -0.579000000
C    -4.951000000    -1.063000000     0.306000000
C    -5.481000000    -1.107000000    -1.117000000
H    -6.215000000    -0.301000000    -1.185000000
H    -5.855000000    -2.119000000    -1.285000000
C    -4.392000000    -0.798000000    -2.115000000
C    -4.297000000     0.435000000    -2.704000000
H    -5.003000000     1.227000000    -2.468000000
C    -3.474000000    -1.802000000    -2.501000000
C    -2.506000000    -1.535000000    -3.491000000
H    -1.949000000    -2.371000000    -3.906000000
C    -2.282000000    -0.241000000    -3.914000000
O    -1.104000000     0.033000000    -4.694000000
C    -0.165000000     0.916000000    -4.159000000
C     1.278000000     0.486000000    -4.236000000
C     1.495000000    -0.878000000    -3.827000000
H     0.675000000    -1.564000000    -3.628000000
C     2.345000000     1.225000000    -4.695000000
H     2.179000000     2.279000000    -4.901000000
O    -0.366000000     2.278000000    -4.668000000
H    -0.392000000     0.973000000    -3.084000000
C    -3.222000000     0.781000000    -3.583000000
C    -3.124000000     2.142000000    -4.145000000
H    -4.083000000     2.663000000    -4.186000000
H    -2.854000000     1.962000000    -5.188000000
C    -2.166000000     3.069000000    -3.368000000
C    -0.835000000     3.116000000    -3.712000000
C     0.087000000     3.811000000    -2.904000000
H     1.146000000     3.810000000    -3.149000000
C    -0.394000000     4.544000000    -1.782000000
O     0.455000000     5.002000000    -0.880000000
C     0.732000000     4.270000000     0.340000000
H     0.515000000     3.194000000     0.267000000
C     2.231000000     4.424000000     0.678000000
C     2.699000000     4.285000000     1.979000000
H     1.992000000     4.328000000     2.803000000
C     3.152000000     4.512000000    -0.409000000
H     2.791000000     4.598000000    -1.430000000
C     4.512000000     4.387000000    -0.124000000
O     5.469000000     4.460000000    -1.099000000
C     4.976000000     4.299000000     1.198000000
H     6.020000000     4.056000000     1.378000000
C     4.066000000     4.365000000     2.216000000
O     4.578000000     4.261000000     3.493000000
C     3.895000000     3.492000000     4.375000000
C     3.854000000     2.111000000     4.303000000
H     4.230000000     1.593000000     3.424000000
C     3.320000000     4.058000000     5.503000000
H     3.338000000     5.145000000     5.527000000
C     2.714000000     3.325000000     6.497000000
H     2.395000000     3.835000000     7.402000000
C     2.634000000     1.982000000     6.364000000
H     2.156000000     1.390000000     7.140000000
C     3.195000000     1.352000000     5.267000000
O     3.071000000     0.018000000     5.133000000
C     1.913000000    -0.649000000     4.751000000
C     1.934000000    -2.054000000     4.736000000
H     2.831000000    -2.575000000     5.061000000
C     0.832000000    -2.826000000     4.351000000
O     0.940000000    -4.224000000     4.390000000
C    -0.121000000    -5.153000000     4.332000000
C    -0.330000000    -5.876000000     3.207000000
H     0.351000000    -5.606000000     2.404000000
C    -0.923000000    -5.348000000     5.470000000
H    -0.759000000    -4.693000000     6.322000000
C    -1.998000000    -6.261000000     5.422000000
H    -2.640000000    -6.436000000     6.282000000
C    -2.329000000    -6.851000000     4.194000000
H    -3.138000000    -7.577000000     4.188000000
C    -1.440000000    -6.695000000     3.133000000
O    -1.697000000    -7.312000000     1.986000000
C    -1.608000000    -6.635000000     0.738000000
C    -0.759000000    -7.065000000    -0.283000000
H    -0.196000000    -7.992000000    -0.212000000
C    -0.624000000    -6.245000000    -1.374000000
O     0.313000000    -6.569000000    -2.279000000
C     0.892000000    -5.685000000    -3.162000000
C     1.505000000    -4.545000000    -2.741000000
H     1.599000000    -4.255000000    -1.697000000
C     0.869000000    -6.058000000    -4.523000000
H     0.306000000    -6.940000000    -4.816000000
C     1.553000000    -5.195000000    -5.419000000
H     1.624000000    -5.643000000    -6.407000000
C     2.255000000    -4.099000000    -4.981000000
H     2.916000000    -3.550000000    -5.647000000
C     2.225000000    -3.678000000    -3.666000000
O     3.023000000    -2.636000000    -3.240000000
C     2.817000000    -1.373000000    -3.694000000
C     3.850000000    -0.570000000    -4.140000000
H     4.863000000    -0.966000000    -4.133000000
C     3.639000000     0.727000000    -4.569000000
O     4.761000000     1.469000000    -4.934000000
C     5.114000000     2.666000000    -4.344000000
C     5.836000000     3.466000000    -5.162000000
H     6.033000000     3.054000000    -6.148000000
C     6.333000000     4.695000000    -4.714000000
H     6.939000000     5.401000000    -5.276000000
C     6.082000000     4.980000000    -3.335000000
H     6.573000000     5.857000000    -2.923000000
C     5.371000000     4.153000000    -2.472000000
C     4.786000000     3.020000000    -3.040000000
H     4.231000000     2.326000000    -2.414000000
C     0.333000000    -2.096000000     0.623000000
H     0.167000000    -3.131000000     0.908000000
C    -0.662000000    -1.112000000     0.715000000
H    -1.680000000    -1.302000000     1.046000000
C    -0.389000000     0.195000000     0.274000000
H    -1.186000000     0.877000000     0.191000000
C     0.808000000     0.522000000    -0.236000000
H     0.896000000     1.479000000    -0.743000000
C     1.836000000    -0.418000000    -0.296000000
H     2.843000000    -0.088000000    -0.537000000
C     1.561000000    -1.735000000     0.109000000
C     2.715000000    -2.659000000     0.157000000
O     3.816000000    -2.262000000    -0.234000000
O     2.615000000    -3.775000000     0.738000000
O     4.822000000    -1.921000000     6.305000000
H     4.373000000    -1.392000000     5.645000000
H     5.397000000    -2.496000000     5.800000000
O     5.381000000    -3.655000000     1.328000000
H     4.725000000    -4.172000000     1.795000000
H     4.898000000    -3.248000000     0.609000000
O     7.936000000     0.643000000    -2.540000000
H     7.107000000     0.410000000    -2.121000000
H     8.604000000     0.211000000    -2.007000000
O     3.181000000    -8.963000000     0.483000000
H     2.996000000    -8.141000000     0.028000000
H     3.541000000    -8.694000000     1.328000000
O     4.957000000    -1.520000000     3.199000000
H     5.207000000    -2.093000000     2.474000000
H     4.368000000    -0.876000000     2.804000000
O     5.490000000    -3.295000000    -2.171000000
H     4.664000000    -2.851000000    -1.981000000
H     6.059000000    -2.606000000    -2.513000000
O     3.329000000    -4.919000000     2.998000000
H     3.001000000    -4.534000000     2.185000000
H     2.621000000    -4.787000000     3.628000000
O     7.573000000    -4.871000000    -1.069000000
H     7.011000000    -4.155000000    -1.365000000
H     7.022000000    -5.378000000    -0.473000000
O     4.207000000    -7.356000000     2.463000000
H     5.082000000    -7.311000000     2.848000000
H     3.777000000    -6.550000000     2.748000000
O     8.013000000    -4.643000000     1.597000000
H     7.149000000    -4.232000000     1.610000000
H     8.192000000    -4.794000000     0.668000000
O     7.950000000    -1.894000000    -0.179000000
H     8.683000000    -1.314000000     0.025000000
H     8.113000000    -2.680000000     0.341000000
O     5.419000000    -6.087000000    -2.732000000
H     4.809000000    -6.291000000    -2.024000000
H     5.827000000    -5.263000000    -2.466000000
O     6.756000000    -6.900000000     0.384000000
H     6.290000000    -6.849000000     1.218000000
H     6.557000000    -7.776000000     0.053000000
O     7.255000000     0.610000000     2.543000000
H     7.405000000     1.184000000     1.792000000
H     6.337000000     0.351000000     2.468000000
O     7.393000000    -2.403000000     4.023000000
H     6.471000000    -2.179000000     3.897000000
H     7.835000000    -2.041000000     3.256000000
O     3.843000000    -5.880000000    -0.079000000
H     4.389000000    -6.035000000     0.691000000
H     3.182000000    -5.254000000     0.218000000
O     6.569000000    -4.021000000    -5.583000000
H     7.262000000    -3.381000000    -5.749000000
H     6.382000000    -3.934000000    -4.648000000
O     5.788000000    -0.567000000    -1.097000000
H     6.421000000    -1.188000000    -0.736000000
H     4.936000000    -0.972000000    -0.935000000
O     4.566000000     0.418000000     1.214000000
H     3.792000000     0.709000000     0.731000000
H     5.177000000     0.129000000     0.536000000
