215
-1470.55999
C    -0.783000000    -1.931000000     5.080000000
H    -1.421000000    -2.577000000     4.483000000
C    -0.873000000    -0.523000000     4.923000000
C     0.011000000     0.316000000     5.559000000
H    -0.158000000     1.389000000     5.532000000
C    -1.874000000     0.079000000     4.003000000
O    -3.126000000    -0.683000000     3.929000000
H    -1.460000000     0.033000000     2.985000000
O    -2.169000000     1.455000000     4.338000000
C    -2.272000000     2.435000000     3.383000000
C    -1.185000000     3.230000000     3.081000000
H    -0.350000000     3.180000000     3.776000000
C    -1.144000000     3.936000000     1.889000000
O    -0.006000000     4.580000000     1.582000000
C    -2.290000000     3.982000000     1.042000000
C    -2.369000000     4.874000000    -0.205000000
H    -3.394000000     5.099000000    -0.510000000
C    -1.810000000     4.188000000    -1.382000000
C    -2.680000000     3.621000000    -2.296000000
H    -3.759000000     3.618000000    -2.166000000
H    -1.823000000     5.802000000    -0.024000000
C    -3.392000000     3.216000000     1.347000000
H    -4.157000000     3.063000000     0.591000000
C    -3.374000000     2.445000000     2.532000000
C    -4.543000000     1.501000000     2.808000000
H    -5.525000000     1.913000000     2.565000000
H    -4.776000000     1.423000000     3.872000000
C    -4.386000000     0.171000000     2.095000000
C    -4.896000000     0.029000000     0.766000000
H    -5.474000000     0.825000000     0.302000000
C    -3.719000000    -0.848000000     2.667000000
C    -3.555000000    -2.067000000     2.073000000
H    -3.191000000    -2.942000000     2.604000000
C    -3.939000000    -2.179000000     0.760000000
O    -3.489000000    -3.339000000     0.137000000
C    -2.409000000    -3.112000000    -0.817000000
C    -1.299000000    -4.127000000    -0.646000000
C    -0.425000000    -4.342000000    -1.673000000
H    -0.486000000    -3.767000000    -2.594000000
C    -1.093000000    -4.691000000     0.590000000
H    -1.620000000    -4.414000000     1.499000000
O    -2.988000000    -3.148000000    -2.181000000
H    -1.953000000    -2.130000000    -0.620000000
C    -4.637000000    -1.162000000     0.070000000
C    -5.212000000    -1.432000000    -1.381000000
H    -6.165000000    -0.930000000    -1.557000000
H    -5.398000000    -2.505000000    -1.461000000
C    -4.215000000    -1.035000000    -2.409000000
C    -4.304000000     0.216000000    -2.976000000
H    -4.999000000     1.014000000    -2.728000000
C    -3.176000000    -1.900000000    -2.795000000
C    -2.268000000    -1.508000000    -3.688000000
H    -1.384000000    -2.088000000    -3.942000000
C    -2.234000000    -0.228000000    -4.192000000
O    -1.148000000     0.100000000    -4.856000000
C    -0.099000000     0.804000000    -4.286000000
C     1.296000000     0.154000000    -4.698000000
C     1.378000000    -1.057000000    -5.294000000
H     0.539000000    -1.740000000    -5.396000000
C     2.435000000     0.880000000    -4.384000000
H     2.297000000     1.799000000    -3.820000000
O    -0.272000000     2.198000000    -4.666000000
H    -0.120000000     0.678000000    -3.193000000
C    -3.255000000     0.635000000    -3.866000000
C    -3.136000000     2.149000000    -4.288000000
H    -4.166000000     2.510000000    -4.314000000
H    -2.779000000     2.302000000    -5.308000000
C    -2.234000000     2.943000000    -3.402000000
C    -0.859000000     2.964000000    -3.678000000
C     0.001000000     3.605000000    -2.797000000
H     1.060000000     3.416000000    -2.953000000
C    -0.449000000     4.261000000    -1.660000000
O     0.509000000     4.727000000    -0.798000000
C     0.819000000     4.070000000     0.502000000
H     0.598000000     2.996000000     0.407000000
C     2.282000000     4.079000000     0.773000000
C     2.724000000     3.527000000     2.019000000
H     1.942000000     3.172000000     2.685000000
C     3.245000000     4.404000000    -0.216000000
H     2.902000000     4.775000000    -1.179000000
C     4.610000000     4.163000000     0.063000000
O     5.557000000     4.413000000    -0.885000000
C     5.015000000     3.532000000     1.298000000
H     6.049000000     3.262000000     1.498000000
C     4.060000000     3.276000000     2.247000000
O     4.440000000     2.518000000     3.308000000
C     3.896000000     2.542000000     4.629000000
C     3.265000000     1.445000000     5.229000000
H     3.262000000     0.478000000     4.732000000
C     3.759000000     3.764000000     5.291000000
H     4.115000000     4.695000000     4.856000000
C     3.025000000     3.916000000     6.518000000
H     2.831000000     4.919000000     6.890000000
C     2.409000000     2.813000000     7.057000000
H     1.823000000     2.885000000     7.970000000
C     2.528000000     1.578000000     6.404000000
O     1.986000000     0.494000000     7.006000000
C     1.032000000    -0.308000000     6.335000000
C     1.174000000    -1.652000000     6.533000000
H     2.004000000    -1.943000000     7.171000000
C     0.256000000    -2.494000000     5.848000000
O     0.273000000    -3.854000000     6.053000000
C    -0.268000000    -4.772000000     5.251000000
C     0.211000000    -4.932000000     3.956000000
H     1.084000000    -4.416000000     3.565000000
C    -1.346000000    -5.553000000     5.662000000
H    -1.789000000    -5.361000000     6.636000000
C    -1.939000000    -6.473000000     4.846000000
H    -2.624000000    -7.223000000     5.234000000
C    -1.487000000    -6.618000000     3.549000000
H    -1.999000000    -7.383000000     2.970000000
C    -0.426000000    -5.920000000     3.142000000
O     0.192000000    -6.256000000     1.965000000
C    -0.079000000    -5.647000000     0.736000000
C     0.788000000    -5.906000000    -0.286000000
H     1.541000000    -6.688000000    -0.238000000
C     0.571000000    -5.304000000    -1.545000000
O     1.462000000    -5.680000000    -2.547000000
C     1.255000000    -5.170000000    -3.811000000
C     2.063000000    -4.120000000    -4.311000000
H     2.791000000    -3.632000000    -3.668000000
C     0.391000000    -5.873000000    -4.643000000
H    -0.268000000    -6.631000000    -4.226000000
C     0.297000000    -5.471000000    -6.009000000
H    -0.486000000    -5.848000000    -6.662000000
C     1.043000000    -4.399000000    -6.535000000
H     0.990000000    -4.066000000    -7.568000000
C     1.957000000    -3.781000000    -5.651000000
O     2.780000000    -2.772000000    -6.061000000
C     2.650000000    -1.508000000    -5.601000000
C     3.828000000    -0.768000000    -5.302000000
H     4.749000000    -1.339000000    -5.396000000
C     3.718000000     0.466000000    -4.662000000
O     4.845000000     1.065000000    -4.205000000
C     4.913000000     2.370000000    -3.844000000
C     4.697000000     3.389000000    -4.772000000
H     4.482000000     3.119000000    -5.802000000
C     4.869000000     4.723000000    -4.436000000
H     4.731000000     5.381000000    -5.290000000
C     5.112000000     5.136000000    -3.088000000
H     5.259000000     6.192000000    -2.875000000
C     5.416000000     4.127000000    -2.205000000
C     5.301000000     2.786000000    -2.520000000
H     5.484000000     1.981000000    -1.812000000
C     0.902000000    -1.739000000     0.539000000
H     0.711000000    -2.642000000     1.114000000
C    -0.119000000    -0.774000000     0.529000000
H    -1.035000000    -0.917000000     1.096000000
C     0.115000000     0.417000000    -0.244000000
H    -0.654000000     1.148000000    -0.243000000
C     1.285000000     0.582000000    -0.896000000
H     1.385000000     1.490000000    -1.484000000
C     2.343000000    -0.357000000    -0.808000000
H     3.228000000    -0.220000000    -1.425000000
C     2.120000000    -1.557000000    -0.136000000
C     3.124000000    -2.702000000    -0.192000000
O     4.137000000    -2.477000000    -0.869000000
O     3.055000000    -3.712000000     0.506000000
O     3.588000000    -4.047000000     2.931000000
H     4.311000000    -4.666000000     2.824000000
H     3.291000000    -3.870000000     2.038000000
O     8.209000000     0.569000000    -3.769000000
H     8.404000000    -0.207000000    -4.295000000
H     7.372000000     0.369000000    -3.349000000
O     4.105000000    -1.249000000     2.868000000
H     3.811000000    -2.159000000     2.909000000
H     3.309000000    -0.747000000     2.695000000
O     6.227000000    -3.828000000     0.149000000
H     5.412000000    -3.870000000    -0.351000000
H     6.894000000    -3.606000000    -0.500000000
O     5.988000000    -4.917000000     2.620000000
H     6.922000000    -4.985000000     2.815000000
H     5.952000000    -4.499000000     1.760000000
O     3.360000000    -3.924000000     5.751000000
H     3.327000000    -4.003000000     4.797000000
H     2.443000000    -3.944000000     6.024000000
O     6.440000000    -1.074000000     1.547000000
H     6.332000000    -1.934000000     1.140000000
H     5.626000000    -0.934000000     2.030000000
O     4.885000000    -6.827000000    -5.422000000
H     5.070000000    -6.096000000    -4.833000000
H     4.482000000    -6.420000000    -6.189000000
O     7.675000000    -3.543000000    -2.184000000
H     8.568000000    -3.297000000    -1.941000000
H     7.168000000    -2.738000000    -2.081000000
O     7.718000000    -6.502000000    -1.451000000
H     7.357000000    -6.854000000    -0.638000000
H     7.428000000    -5.590000000    -1.467000000
O     7.616000000     0.848000000     0.333000000
H     8.326000000     0.301000000    -0.002000000
H     7.094000000     0.257000000     0.877000000
O     9.074000000    -1.310000000    -0.411000000
H     9.683000000    -1.024000000    -1.092000000
H     9.598000000    -1.877000000     0.156000000
O     4.726000000    -4.994000000    -1.779000000
H     5.134000000    -5.559000000    -1.123000000
H     3.887000000    -4.744000000    -1.391000000
O     8.131000000    -1.866000000     3.928000000
H     8.555000000    -2.700000000     3.725000000
H     7.774000000    -1.569000000     3.091000000
O     3.992000000    -6.438000000     0.314000000
H     4.624000000    -6.732000000     0.969000000
H     3.847000000    -5.514000000     0.518000000
O     5.961000000    -4.387000000    -4.328000000
H     5.542000000    -4.760000000    -3.553000000
H     6.639000000    -3.809000000    -3.979000000
O     1.900000000    -8.528000000    -2.377000000
H     1.896000000    -7.618000000    -2.674000000
H     1.080000000    -8.626000000    -1.894000000
O     6.363000000    -1.303000000    -1.781000000
H     6.439000000    -0.667000000    -1.069000000
H     5.495000000    -1.689000000    -1.666000000
O     1.956000000     0.263000000     2.388000000
H     1.594000000    -0.049000000     1.558000000
H     2.452000000     1.047000000     2.152000000
