215
-1454.06209
C    -0.702000000    -2.270000000     4.474000000
H    -1.350000000    -2.819000000     3.796000000
C    -0.617000000    -0.893000000     4.521000000
C     0.455000000    -0.232000000     5.168000000
H     0.744000000     0.792000000     4.945000000
C    -1.599000000    -0.008000000     3.767000000
O    -2.841000000    -0.611000000     3.744000000
H    -1.225000000     0.065000000     2.735000000
O    -1.721000000     1.356000000     4.376000000
C    -1.889000000     2.390000000     3.548000000
C    -0.722000000     3.060000000     3.227000000
H     0.231000000     2.961000000     3.741000000
C    -0.803000000     4.022000000     2.282000000
O     0.381000000     4.697000000     1.933000000
C    -1.985000000     4.255000000     1.528000000
C    -1.918000000     5.250000000     0.379000000
H    -2.917000000     5.659000000     0.211000000
C    -1.423000000     4.613000000    -0.921000000
C    -2.328000000     4.008000000    -1.767000000
H    -3.387000000     4.132000000    -1.556000000
H    -1.348000000     6.093000000     0.774000000
C    -3.125000000     3.513000000     1.733000000
H    -3.906000000     3.725000000     1.007000000
C    -3.078000000     2.582000000     2.782000000
C    -4.351000000     1.733000000     2.997000000
H    -5.240000000     2.324000000     2.766000000
H    -4.385000000     1.479000000     4.058000000
C    -4.346000000     0.480000000     2.163000000
C    -4.974000000     0.362000000     0.904000000
H    -5.432000000     1.193000000     0.374000000
C    -3.586000000    -0.642000000     2.587000000
C    -3.331000000    -1.726000000     1.791000000
H    -2.747000000    -2.558000000     2.177000000
C    -3.947000000    -1.828000000     0.611000000
O    -3.632000000    -2.956000000    -0.196000000
C    -2.653000000    -2.941000000    -1.192000000
C    -1.674000000    -4.129000000    -1.069000000
C    -0.660000000    -4.236000000    -1.974000000
H    -0.635000000    -3.558000000    -2.823000000
C    -1.749000000    -4.961000000     0.070000000
H    -2.557000000    -4.869000000     0.791000000
O    -3.258000000    -2.763000000    -2.492000000
H    -2.101000000    -1.999000000    -1.060000000
C    -4.733000000    -0.773000000     0.131000000
C    -5.274000000    -0.819000000    -1.346000000
H    -6.045000000    -0.052000000    -1.452000000
H    -5.707000000    -1.798000000    -1.563000000
C    -4.205000000    -0.533000000    -2.386000000
C    -4.013000000     0.791000000    -2.725000000
H    -4.584000000     1.574000000    -2.234000000
C    -3.262000000    -1.428000000    -2.869000000
C    -2.205000000    -0.991000000    -3.645000000
H    -1.345000000    -1.601000000    -3.909000000
C    -2.122000000     0.301000000    -4.135000000
O    -1.125000000     0.782000000    -4.899000000
C     0.061000000     1.239000000    -4.241000000
C     1.349000000     0.626000000    -4.816000000
C     1.228000000    -0.657000000    -5.385000000
H     0.289000000    -1.189000000    -5.258000000
C     2.645000000     1.210000000    -4.697000000
H     2.712000000     2.183000000    -4.216000000
O     0.116000000     2.690000000    -4.231000000
H    -0.092000000     0.961000000    -3.188000000
C    -3.076000000     1.227000000    -3.609000000
C    -2.933000000     2.737000000    -3.935000000
H    -3.855000000     3.311000000    -3.825000000
H    -2.574000000     2.831000000    -4.962000000
C    -1.919000000     3.392000000    -2.971000000
C    -0.519000000     3.395000000    -3.209000000
C     0.374000000     3.946000000    -2.297000000
H     1.430000000     3.904000000    -2.549000000
C    -0.058000000     4.491000000    -1.117000000
O     0.898000000     4.845000000    -0.240000000
C     1.072000000     4.037000000     0.882000000
H     0.470000000     3.145000000     0.652000000
C     2.525000000     3.602000000     1.130000000
C     2.968000000     3.601000000     2.456000000
H     2.277000000     3.964000000     3.213000000
C     3.417000000     3.277000000     0.143000000
H     3.177000000     3.219000000    -0.916000000
C     4.765000000     2.969000000     0.363000000
O     5.598000000     2.466000000    -0.585000000
C     5.127000000     2.876000000     1.721000000
H     6.119000000     2.584000000     2.056000000
C     4.250000000     3.190000000     2.750000000
O     4.652000000     2.865000000     4.068000000
C     3.784000000     2.618000000     5.049000000
C     3.439000000     1.323000000     5.323000000
H     3.750000000     0.470000000     4.726000000
C     3.366000000     3.662000000     5.901000000
H     3.634000000     4.686000000     5.656000000
C     2.392000000     3.369000000     6.825000000
H     1.910000000     4.197000000     7.338000000
C     2.077000000     2.047000000     7.155000000
H     1.349000000     1.924000000     7.952000000
C     2.659000000     1.013000000     6.419000000
O     2.312000000    -0.371000000     6.627000000
C     1.292000000    -0.998000000     5.970000000
C     1.132000000    -2.363000000     6.096000000
H     1.722000000    -2.888000000     6.842000000
C     0.150000000    -3.008000000     5.315000000
O     0.033000000    -4.433000000     5.399000000
C    -0.760000000    -5.203000000     4.622000000
C    -0.405000000    -5.550000000     3.403000000
H     0.491000000    -5.183000000     2.909000000
C    -1.992000000    -5.651000000     5.125000000
H    -2.315000000    -5.425000000     6.138000000
C    -2.796000000    -6.469000000     4.327000000
H    -3.768000000    -6.792000000     4.691000000
C    -2.421000000    -6.841000000     3.024000000
H    -3.023000000    -7.547000000     2.458000000
C    -1.195000000    -6.463000000     2.623000000
O    -0.786000000    -6.778000000     1.353000000
C    -0.791000000    -5.927000000     0.274000000
C     0.338000000    -5.983000000    -0.583000000
H     1.099000000    -6.748000000    -0.454000000
C     0.317000000    -5.211000000    -1.773000000
O     1.258000000    -5.283000000    -2.706000000
C     1.116000000    -4.933000000    -4.050000000
C     1.908000000    -4.000000000    -4.693000000
H     2.642000000    -3.454000000    -4.107000000
C     0.068000000    -5.492000000    -4.782000000
H    -0.597000000    -6.189000000    -4.277000000
C    -0.209000000    -5.115000000    -6.070000000
H    -0.993000000    -5.619000000    -6.629000000
C     0.639000000    -4.211000000    -6.679000000
H     0.406000000    -3.905000000    -7.695000000
C     1.644000000    -3.539000000    -5.980000000
O     2.327000000    -2.529000000    -6.517000000
C     2.347000000    -1.289000000    -5.975000000
C     3.609000000    -0.694000000    -5.810000000
H     4.473000000    -1.223000000    -6.204000000
C     3.779000000     0.516000000    -5.181000000
O     5.026000000     1.064000000    -5.081000000
C     5.301000000     2.061000000    -4.158000000
C     5.339000000     3.365000000    -4.586000000
H     5.110000000     3.641000000    -5.613000000
C     5.359000000     4.403000000    -3.702000000
H     5.323000000     5.448000000    -4.000000000
C     5.533000000     4.101000000    -2.352000000
H     5.699000000     4.962000000    -1.710000000
C     5.551000000     2.812000000    -1.929000000
C     5.423000000     1.742000000    -2.816000000
H     5.422000000     0.723000000    -2.439000000
C     1.025000000    -2.047000000     0.255000000
H     0.729000000    -2.883000000     0.884000000
C     0.158000000    -1.009000000    -0.055000000
H    -0.797000000    -1.090000000     0.457000000
C     0.658000000     0.065000000    -0.812000000
H     0.020000000     0.870000000    -1.012000000
C     1.881000000    -0.055000000    -1.394000000
H     2.319000000     0.744000000    -1.987000000
C     2.744000000    -1.177000000    -1.095000000
H     3.621000000    -1.360000000    -1.711000000
C     2.333000000    -2.166000000    -0.257000000
C     3.239000000    -3.372000000    -0.072000000
O     4.263000000    -3.617000000    -0.753000000
O     3.121000000    -3.927000000     0.949000000
O     5.891000000    -2.403000000     4.136000000
H     6.098000000    -3.337000000     4.161000000
H     4.999000000    -2.365000000     3.791000000
O     7.519000000    -1.150000000    -2.708000000
H     7.077000000    -1.294000000    -1.871000000
H     8.443000000    -1.055000000    -2.476000000
O     1.497000000    -9.368000000     0.541000000
H     1.489000000    -8.549000000     1.036000000
H     1.661000000   -10.044000000     1.198000000
O     3.571000000    -6.688000000     0.628000000
H     3.536000000    -5.768000000     0.888000000
H     4.011000000    -6.681000000    -0.221000000
O     6.363000000    -0.020000000     2.277000000
H     6.557000000    -0.752000000     2.861000000
H     5.410000000    -0.028000000     2.191000000
O     5.578000000    -3.002000000    -4.032000000
H     5.270000000    -3.130000000    -3.135000000
H     6.207000000    -2.283000000    -3.969000000
O     3.433000000    -2.676000000     3.220000000
H     3.385000000    -3.001000000     2.320000000
H     3.002000000    -3.353000000     3.742000000
O     4.658000000    -5.773000000    -2.049000000
H     5.602000000    -5.634000000    -2.117000000
H     4.318000000    -4.948000000    -1.703000000
O     3.185000000    -4.870000000     4.999000000
H     2.843000000    -5.292000000     5.787000000
H     3.210000000    -5.568000000     4.345000000
O     8.054000000    -2.752000000     1.597000000
H     7.435000000    -3.474000000     1.484000000
H     8.508000000    -2.692000000     0.757000000
O     7.330000000    -4.611000000    -1.897000000
H     7.715000000    -3.735000000    -1.858000000
H     7.097000000    -4.811000000    -0.990000000
O     6.205000000    -5.164000000     3.665000000
H     5.297000000    -5.332000000     3.413000000
H     6.450000000    -5.921000000     4.197000000
O     3.462000000    -9.379000000    -1.379000000
H     3.107000000    -8.981000000    -2.173000000
H     2.786000000    -9.235000000    -0.716000000
O     3.944000000    -7.081000000     3.335000000
H     3.950000000    -8.028000000     3.198000000
H     3.606000000    -6.722000000     2.514000000
O     6.192000000    -5.010000000     0.560000000
H     5.927000000    -5.808000000     1.018000000
H     5.379000000    -4.665000000     0.191000000
O     3.347000000    -7.545000000    -3.498000000
H     3.950000000    -7.010000000    -2.983000000
H     2.652000000    -6.940000000    -3.757000000
O     6.037000000    -1.531000000    -0.444000000
H     5.867000000    -1.248000000     0.455000000
H     5.466000000    -2.288000000    -0.569000000
O     3.639000000    -0.106000000     2.313000000
H     3.207000000    -0.795000000     2.818000000
H     3.330000000    -0.237000000     1.417000000
O     6.530000000    -8.458000000     1.546000000
H     6.712000000    -7.722000000     2.129000000
H     7.335000000    -8.567000000     1.039000000
