215
-1458.27684
C    -1.127000000    -2.380000000     4.944000000
H    -2.036000000    -2.774000000     4.497000000
C    -0.688000000    -1.062000000     4.713000000
C     0.661000000    -0.765000000     4.959000000
H     1.052000000     0.139000000     4.500000000
C    -1.475000000    -0.134000000     3.811000000
O    -2.842000000    -0.602000000     3.819000000
H    -1.155000000    -0.104000000     2.759000000
O    -1.420000000     1.172000000     4.428000000
C    -1.609000000     2.302000000     3.636000000
C    -0.520000000     3.048000000     3.380000000
H     0.457000000     2.880000000     3.828000000
C    -0.619000000     4.063000000     2.397000000
O     0.624000000     4.573000000     2.144000000
C    -1.760000000     4.450000000     1.809000000
C    -1.845000000     5.479000000     0.653000000
H    -2.887000000     5.805000000     0.647000000
C    -1.345000000     4.831000000    -0.653000000
C    -2.210000000     4.265000000    -1.594000000
H    -3.285000000     4.331000000    -1.441000000
H    -1.186000000     6.323000000     0.867000000
C    -2.916000000     3.777000000     2.165000000
H    -3.861000000     4.012000000     1.682000000
C    -2.846000000     2.618000000     3.046000000
C    -4.122000000     1.757000000     3.329000000
H    -5.021000000     2.376000000     3.292000000
H    -4.025000000     1.424000000     4.364000000
C    -4.205000000     0.617000000     2.404000000
C    -4.934000000     0.711000000     1.215000000
H    -5.409000000     1.658000000     0.973000000
C    -3.638000000    -0.573000000     2.694000000
C    -3.775000000    -1.700000000     1.881000000
H    -3.326000000    -2.610000000     2.271000000
C    -4.416000000    -1.639000000     0.654000000
O    -4.315000000    -2.798000000    -0.175000000
C    -3.266000000    -2.749000000    -1.128000000
C    -2.396000000    -4.001000000    -1.046000000
C    -1.435000000    -4.240000000    -2.084000000
H    -1.398000000    -3.627000000    -2.981000000
C    -2.305000000    -4.768000000     0.100000000
H    -2.986000000    -4.542000000     0.917000000
O    -3.736000000    -2.397000000    -2.394000000
H    -2.628000000    -1.926000000    -0.773000000
C    -4.906000000    -0.422000000     0.310000000
C    -5.422000000    -0.250000000    -1.165000000
H    -6.141000000     0.567000000    -1.075000000
H    -5.830000000    -1.228000000    -1.430000000
C    -4.306000000     0.016000000    -2.091000000
C    -4.034000000     1.322000000    -2.391000000
H    -4.450000000     2.173000000    -1.857000000
C    -3.593000000    -1.055000000    -2.694000000
C    -2.646000000    -0.783000000    -3.617000000
H    -2.102000000    -1.584000000    -4.112000000
C    -2.335000000     0.563000000    -3.912000000
O    -1.146000000     0.690000000    -4.636000000
C     0.113000000     1.162000000    -4.040000000
C     1.334000000     0.608000000    -4.644000000
C     1.253000000    -0.522000000    -5.391000000
H     0.284000000    -0.932000000    -5.667000000
C     2.530000000     1.087000000    -4.146000000
H     2.653000000     1.787000000    -3.323000000
O     0.081000000     2.607000000    -4.028000000
H    -0.018000000     0.797000000    -3.010000000
C    -3.035000000     1.610000000    -3.306000000
C    -2.768000000     2.987000000    -3.812000000
H    -3.666000000     3.602000000    -3.730000000
H    -2.390000000     2.997000000    -4.837000000
C    -1.767000000     3.601000000    -2.797000000
C    -0.418000000     3.353000000    -2.947000000
C     0.421000000     3.952000000    -2.053000000
H     1.497000000     3.826000000    -2.135000000
C     0.007000000     4.763000000    -0.971000000
O     1.017000000     5.088000000    -0.076000000
C     1.193000000     4.034000000     0.948000000
H     0.763000000     3.045000000     0.734000000
C     2.703000000     3.723000000     1.001000000
C     3.190000000     2.870000000     2.055000000
H     2.513000000     2.701000000     2.889000000
C     3.531000000     4.222000000     0.016000000
H     3.203000000     4.843000000    -0.813000000
C     4.909000000     3.862000000     0.065000000
O     5.746000000     4.340000000    -0.882000000
C     5.429000000     3.125000000     1.102000000
H     6.489000000     2.887000000     1.100000000
C     4.576000000     2.716000000     2.143000000
O     5.167000000     1.920000000     3.160000000
C     4.527000000     1.511000000     4.266000000
C     4.039000000     0.240000000     4.315000000
H     4.045000000    -0.428000000     3.458000000
C     4.444000000     2.417000000     5.369000000
H     4.877000000     3.398000000     5.191000000
C     3.617000000     2.005000000     6.466000000
H     3.426000000     2.717000000     7.265000000
C     3.187000000     0.714000000     6.502000000
H     2.665000000     0.333000000     7.376000000
C     3.424000000    -0.181000000     5.458000000
O     2.852000000    -1.427000000     5.550000000
C     1.484000000    -1.684000000     5.521000000
C     0.937000000    -2.846000000     6.050000000
H     1.546000000    -3.553000000     6.606000000
C    -0.373000000    -3.219000000     5.745000000
O    -0.914000000    -4.520000000     5.949000000
C    -1.366000000    -5.387000000     4.992000000
C    -0.822000000    -5.347000000     3.724000000
H     0.100000000    -4.824000000     3.484000000
C    -2.549000000    -6.118000000     5.300000000
H    -2.950000000    -6.115000000     6.310000000
C    -3.146000000    -6.883000000     4.280000000
H    -3.941000000    -7.586000000     4.516000000
C    -2.544000000    -6.860000000     3.004000000
H    -3.130000000    -7.293000000     2.198000000
C    -1.478000000    -6.089000000     2.707000000
O    -0.869000000    -6.214000000     1.513000000
C    -1.196000000    -5.580000000     0.320000000
C    -0.337000000    -5.856000000    -0.713000000
H     0.505000000    -6.500000000    -0.474000000
C    -0.479000000    -5.207000000    -1.942000000
O     0.458000000    -5.489000000    -2.940000000
C     0.498000000    -4.914000000    -4.167000000
C     1.301000000    -3.842000000    -4.492000000
H     1.906000000    -3.358000000    -3.730000000
C    -0.221000000    -5.599000000    -5.163000000
H    -0.885000000    -6.390000000    -4.825000000
C    -0.039000000    -5.138000000    -6.466000000
H    -0.530000000    -5.681000000    -7.270000000
C     0.776000000    -4.069000000    -6.811000000
H     1.041000000    -3.770000000    -7.822000000
C     1.509000000    -3.489000000    -5.848000000
O     2.379000000    -2.456000000    -6.219000000
C     2.455000000    -1.151000000    -5.721000000
C     3.664000000    -0.606000000    -5.486000000
H     4.561000000    -0.963000000    -5.986000000
C     3.715000000     0.551000000    -4.667000000
O     4.958000000     0.970000000    -4.265000000
C     5.186000000     2.269000000    -3.889000000
C     5.461000000     3.248000000    -4.871000000
H     5.500000000     3.015000000    -5.932000000
C     5.750000000     4.542000000    -4.447000000
H     5.872000000     5.351000000    -5.163000000
C     5.878000000     4.904000000    -3.141000000
H     6.242000000     5.897000000    -2.888000000
C     5.598000000     3.957000000    -2.171000000
C     5.142000000     2.682000000    -2.572000000
H     4.805000000     2.037000000    -1.764000000
C     1.428000000    -1.866000000     0.666000000
H     1.911000000    -2.759000000     1.054000000
C     0.084000000    -1.651000000     0.826000000
H    -0.447000000    -2.339000000     1.479000000
C    -0.492000000    -0.426000000     0.433000000
H    -1.432000000    -0.211000000     0.603000000
C     0.295000000     0.487000000    -0.284000000
H    -0.082000000     1.463000000    -0.578000000
C     1.588000000     0.217000000    -0.555000000
H     2.185000000     0.959000000    -1.078000000
C     2.220000000    -0.944000000    -0.052000000
C     3.691000000    -1.179000000    -0.333000000
O     4.309000000    -0.278000000    -0.795000000
O     4.133000000    -2.276000000    -0.080000000
O     2.599000000     4.736000000    -4.289000000
H     3.128000000     4.020000000    -3.935000000
H     2.910000000     5.514000000    -3.826000000
O     3.264000000    -4.884000000     1.855000000
H     3.210000000    -5.620000000     1.246000000
H     3.695000000    -4.191000000     1.356000000
O     3.238000000    -7.162000000    -0.536000000
H     3.342000000    -6.251000000    -0.810000000
H     4.078000000    -7.390000000    -0.138000000
O     8.145000000    -1.482000000    -3.218000000
H     7.227000000    -1.615000000    -2.982000000
H     8.224000000    -1.856000000    -4.095000000
O     9.511000000    -1.025000000    -0.782000000
H    10.027000000    -0.218000000    -0.786000000
H     8.966000000    -0.965000000    -1.566000000
O     9.256000000    -3.658000000     0.147000000
H     9.188000000    -2.713000000     0.007000000
H    10.003000000    -3.926000000    -0.389000000
O     8.338000000     1.493000000     4.361000000
H     8.331000000     0.883000000     3.623000000
H     8.353000000     2.360000000     3.956000000
O     7.284000000    -4.935000000     1.336000000
H     8.106000000    -4.631000000     0.950000000
H     6.962000000    -4.186000000     1.837000000
O     3.985000000    -5.519000000    -3.389000000
H     4.247000000    -5.282000000    -2.499000000
H     4.222000000    -6.442000000    -3.471000000
O     8.261000000    -5.068000000    -2.348000000
H     8.375000000    -4.688000000    -1.477000000
H     8.949000000    -4.663000000    -2.877000000
O     7.886000000     0.422000000     1.860000000
H     7.226000000    -0.272000000     1.892000000
H     7.743000000     0.849000000     1.015000000
O     4.159000000    -4.767000000    -0.836000000
H     3.989000000    -3.835000000    -0.702000000
H     5.079000000    -4.880000000    -0.596000000
O     6.142000000    -3.854000000    -5.480000000
H     6.422000000    -4.769000000    -5.468000000
H     5.770000000    -3.706000000    -4.611000000
O     5.372000000    -3.532000000     3.488000000
H     5.400000000    -3.938000000     4.354000000
H     4.607000000    -3.922000000     3.065000000
O     8.643000000     2.388000000    -1.333000000
H     8.308000000     3.041000000    -0.720000000
H     8.013000000     1.668000000    -1.284000000
O     6.367000000    -1.826000000     1.550000000
H     5.721000000    -1.911000000     0.848000000
H     5.943000000    -2.220000000     2.313000000
O     5.522000000    -1.973000000    -2.707000000
H     5.021000000    -1.158000000    -2.667000000
H     5.176000000    -2.503000000    -1.989000000
O     6.836000000     0.410000000    -0.687000000
H     7.137000000    -0.448000000    -0.986000000
H     5.883000000     0.371000000    -0.768000000
O     5.668000000    -6.888000000     0.736000000
H     6.329000000    -7.350000000     0.220000000
H     6.164000000    -6.241000000     1.237000000
