215
-1459.27492
C    -1.158000000    -1.847000000     5.312000000
H    -2.226000000    -2.046000000     5.343000000
C    -0.706000000    -0.633000000     4.819000000
C     0.688000000    -0.435000000     4.743000000
H     1.032000000     0.482000000     4.270000000
C    -1.609000000     0.369000000     4.092000000
O    -2.965000000     0.012000000     4.314000000
H    -1.320000000     0.306000000     3.032000000
O    -1.418000000     1.725000000     4.546000000
C    -1.447000000     2.740000000     3.592000000
C    -0.265000000     3.337000000     3.119000000
H     0.692000000     3.001000000     3.511000000
C    -0.240000000     4.130000000     2.014000000
O     1.000000000     4.567000000     1.569000000
C    -1.448000000     4.504000000     1.386000000
C    -1.474000000     5.454000000     0.194000000
H    -2.413000000     6.008000000     0.130000000
C    -1.189000000     4.666000000    -1.057000000
C    -2.223000000     4.197000000    -1.843000000
H    -3.218000000     4.276000000    -1.415000000
H    -0.786000000     6.292000000     0.321000000
C    -2.617000000     3.969000000     1.931000000
H    -3.526000000     4.129000000     1.358000000
C    -2.646000000     3.013000000     2.922000000
C    -3.995000000     2.444000000     3.308000000
H    -4.741000000     3.216000000     3.105000000
H    -4.075000000     2.308000000     4.389000000
C    -4.312000000     1.106000000     2.612000000
C    -4.786000000     1.019000000     1.305000000
H    -5.180000000     1.917000000     0.835000000
C    -3.765000000    -0.045000000     3.165000000
C    -3.901000000    -1.270000000     2.529000000
H    -3.369000000    -2.126000000     2.936000000
C    -4.356000000    -1.322000000     1.225000000
O    -4.138000000    -2.505000000     0.466000000
C    -3.030000000    -2.427000000    -0.454000000
C    -2.147000000    -3.665000000    -0.386000000
C    -1.216000000    -3.885000000    -1.425000000
H    -1.163000000    -3.214000000    -2.279000000
C    -2.085000000    -4.515000000     0.747000000
H    -2.721000000    -4.308000000     1.604000000
O    -3.632000000    -2.346000000    -1.791000000
H    -2.542000000    -1.457000000    -0.282000000
C    -4.898000000    -0.205000000     0.603000000
C    -5.512000000    -0.279000000    -0.813000000
H    -6.298000000     0.475000000    -0.897000000
H    -5.871000000    -1.304000000    -0.927000000
C    -4.460000000    -0.039000000    -1.895000000
C    -4.203000000     1.252000000    -2.345000000
H    -4.817000000     2.058000000    -1.951000000
C    -3.662000000    -1.099000000    -2.359000000
C    -2.564000000    -0.773000000    -3.226000000
H    -1.849000000    -1.517000000    -3.567000000
C    -2.439000000     0.451000000    -3.846000000
O    -1.396000000     0.669000000    -4.784000000
C    -0.095000000     1.291000000    -4.346000000
C     0.967000000     0.586000000    -5.082000000
C     0.753000000    -0.770000000    -5.400000000
H    -0.047000000    -1.305000000    -4.895000000
C     2.209000000     1.232000000    -5.377000000
H     2.428000000     2.285000000    -5.222000000
O    -0.174000000     2.701000000    -4.507000000
H     0.094000000     1.040000000    -3.292000000
C    -3.210000000     1.489000000    -3.267000000
C    -3.046000000     2.919000000    -3.729000000
H    -4.001000000     3.439000000    -3.626000000
H    -2.836000000     2.818000000    -4.796000000
C    -1.906000000     3.609000000    -3.049000000
C    -0.600000000     3.524000000    -3.511000000
C     0.412000000     4.051000000    -2.748000000
H     1.461000000     3.964000000    -3.018000000
C     0.113000000     4.601000000    -1.512000000
O     1.206000000     4.891000000    -0.744000000
C     1.438000000     3.954000000     0.327000000
H     0.735000000     3.110000000     0.272000000
C     2.843000000     3.378000000     0.511000000
C     3.393000000     3.202000000     1.784000000
H     2.890000000     3.586000000     2.667000000
C     3.526000000     2.862000000    -0.603000000
H     3.044000000     2.887000000    -1.577000000
C     4.730000000     2.235000000    -0.444000000
O     5.386000000     1.696000000    -1.489000000
C     5.324000000     2.147000000     0.794000000
H     6.278000000     1.655000000     0.970000000
C     4.669000000     2.650000000     1.889000000
O     5.192000000     2.587000000     3.156000000
C     4.680000000     1.958000000     4.259000000
C     4.104000000     0.681000000     4.262000000
H     4.073000000     0.169000000     3.303000000
C     4.840000000     2.582000000     5.520000000
H     5.333000000     3.537000000     5.680000000
C     4.480000000     2.005000000     6.687000000
H     4.690000000     2.478000000     7.643000000
C     3.830000000     0.787000000     6.649000000
H     3.368000000     0.347000000     7.529000000
C     3.563000000     0.129000000     5.425000000
O     2.943000000    -1.130000000     5.369000000
C     1.566000000    -1.373000000     5.331000000
C     1.082000000    -2.631000000     5.732000000
H     1.675000000    -3.395000000     6.229000000
C    -0.292000000    -2.852000000     5.778000000
O    -0.785000000    -4.038000000     6.243000000
C    -1.262000000    -5.018000000     5.385000000
C    -0.744000000    -5.139000000     4.123000000
H     0.118000000    -4.524000000     3.878000000
C    -2.295000000    -5.863000000     5.823000000
H    -2.678000000    -5.771000000     6.836000000
C    -2.819000000    -6.837000000     5.007000000
H    -3.612000000    -7.496000000     5.354000000
C    -2.273000000    -6.976000000     3.712000000
H    -2.519000000    -7.823000000     3.076000000
C    -1.351000000    -6.062000000     3.227000000
O    -0.827000000    -6.208000000     1.888000000
C    -1.078000000    -5.463000000     0.793000000
C    -0.206000000    -5.701000000    -0.263000000
H     0.599000000    -6.431000000    -0.261000000
C    -0.245000000    -4.902000000    -1.336000000
O     0.613000000    -5.107000000    -2.383000000
C     0.316000000    -4.758000000    -3.655000000
C     1.203000000    -3.884000000    -4.334000000
H     2.187000000    -3.656000000    -3.931000000
C    -0.763000000    -5.421000000    -4.268000000
H    -1.302000000    -6.179000000    -3.706000000
C    -1.004000000    -5.080000000    -5.596000000
H    -1.865000000    -5.594000000    -6.014000000
C    -0.213000000    -4.205000000    -6.285000000
H    -0.298000000    -4.031000000    -7.354000000
C     0.846000000    -3.545000000    -5.619000000
O     1.735000000    -2.803000000    -6.367000000
C     1.730000000    -1.463000000    -6.096000000
C     2.929000000    -0.742000000    -6.384000000
H     3.773000000    -1.354000000    -6.691000000
C     3.166000000     0.595000000    -6.139000000
O     4.437000000     1.055000000    -6.201000000
C     4.960000000     1.785000000    -5.127000000
C     5.532000000     3.052000000    -5.464000000
H     5.664000000     3.237000000    -6.527000000
C     6.035000000     3.810000000    -4.450000000
H     6.586000000     4.692000000    -4.765000000
C     6.025000000     3.408000000    -3.050000000
H     6.577000000     3.960000000    -2.294000000
C     5.345000000     2.200000000    -2.774000000
C     4.835000000     1.403000000    -3.778000000
H     4.406000000     0.437000000    -3.524000000
C     1.132000000    -1.726000000     0.419000000
H     1.118000000    -2.634000000     1.017000000
C     0.200000000    -0.707000000     0.702000000
H    -0.507000000    -0.909000000     1.503000000
C     0.134000000     0.435000000    -0.038000000
H    -0.628000000     1.093000000     0.084000000
C     1.066000000     0.557000000    -1.093000000
H     1.104000000     1.430000000    -1.739000000
C     2.106000000    -0.347000000    -1.274000000
H     2.820000000    -0.219000000    -2.083000000
C     2.065000000    -1.591000000    -0.601000000
C     3.079000000    -2.709000000    -0.872000000
O     3.732000000    -2.650000000    -1.866000000
O     3.102000000    -3.669000000    -0.144000000
O     3.886000000    -3.590000000     4.746000000
H     3.439000000    -2.806000000     5.065000000
H     3.368000000    -3.870000000     3.991000000
O     3.089000000    -6.414000000    -0.563000000
H     3.464000000    -6.370000000    -1.442000000
H     2.900000000    -5.503000000    -0.337000000
O     5.632000000    -2.393000000     3.062000000
H     5.777000000    -3.115000000     2.451000000
H     4.970000000    -2.723000000     3.670000000
O     5.280000000    -2.596000000    -4.067000000
H     4.689000000    -2.503000000    -3.320000000
H     5.963000000    -1.944000000    -3.914000000
O     4.810000000    -5.952000000     3.312000000
H     4.353000000    -5.619000000     4.085000000
H     5.702000000    -6.122000000     3.617000000
O     6.893000000    -7.607000000    -1.174000000
H     7.524000000    -7.248000000    -0.550000000
H     6.066000000    -7.180000000    -0.949000000
O     3.169000000    -7.389000000     1.921000000
H     3.162000000    -7.310000000     0.967000000
H     3.893000000    -6.830000000     2.202000000
O     6.098000000    -4.114000000    -6.461000000
H     5.588000000    -4.882000000    -6.205000000
H     5.782000000    -3.415000000    -5.889000000
O     9.486000000    -1.337000000     0.217000000
H     9.928000000    -1.477000000    -0.620000000
H     8.880000000    -2.073000000     0.294000000
O     8.103000000    -3.930000000     1.772000000
H     7.345000000    -4.048000000     1.200000000
H     8.590000000    -4.750000000     1.697000000
O     7.724000000    -0.847000000     3.607000000
H     7.675000000    -0.149000000     2.954000000
H     6.931000000    -1.364000000     3.465000000
O     6.230000000    -2.462000000    -0.980000000
H     6.213000000    -3.192000000    -0.361000000
H     5.409000000    -2.540000000    -1.465000000
O     4.478000000    -6.108000000    -5.885000000
H     3.865000000    -6.216000000    -6.612000000
H     3.978000000    -6.367000000    -5.111000000
O     0.804000000    -9.357000000    -0.756000000
H     1.002000000    -8.545000000    -1.223000000
H    -0.069000000    -9.603000000    -1.064000000
O     4.331000000    -8.311000000    -2.758000000
H     4.426000000    -8.580000000    -3.672000000
H     3.388000000    -8.342000000    -2.597000000
O     5.498000000    -4.592000000     1.053000000
H     5.325000000    -5.165000000     1.800000000
H     4.636000000    -4.437000000     0.666000000
O     4.261000000    -5.076000000    -2.828000000
H     3.869000000    -4.303000000    -2.421000000
H     4.920000000    -4.723000000    -3.426000000
O     7.505000000    -1.034000000    -3.102000000
H     7.425000000    -0.098000000    -2.918000000
H     7.011000000    -1.459000000    -2.402000000
O     2.486000000    -4.224000000     2.656000000
H     2.608000000    -4.022000000     1.729000000
H     2.192000000    -5.135000000     2.665000000
