215
-1456.77332
C    -0.536000000    -2.547000000     4.678000000
H    -1.532000000    -2.982000000     4.670000000
C    -0.236000000    -1.236000000     4.389000000
C     1.064000000    -0.782000000     4.363000000
H     1.331000000     0.251000000     4.155000000
C    -1.340000000    -0.276000000     3.920000000
O    -2.671000000    -0.779000000     4.113000000
H    -1.119000000    -0.161000000     2.849000000
O    -1.250000000     1.054000000     4.552000000
C    -1.458000000     2.183000000     3.789000000
C    -0.340000000     2.873000000     3.397000000
H     0.635000000     2.608000000     3.798000000
C    -0.459000000     3.845000000     2.492000000
O     0.758000000     4.437000000     2.162000000
C    -1.683000000     4.189000000     1.925000000
C    -1.695000000     5.273000000     0.823000000
H    -2.686000000     5.729000000     0.773000000
C    -1.224000000     4.830000000    -0.603000000
C    -2.230000000     4.349000000    -1.453000000
H    -3.272000000     4.320000000    -1.143000000
H    -1.081000000     6.084000000     1.220000000
C    -2.845000000     3.539000000     2.349000000
H    -3.802000000     3.797000000     1.903000000
C    -2.744000000     2.533000000     3.283000000
C    -3.999000000     1.710000000     3.631000000
H    -4.832000000     2.414000000     3.578000000
H    -3.939000000     1.506000000     4.702000000
C    -4.129000000     0.459000000     2.678000000
C    -4.833000000     0.510000000     1.438000000
H    -5.320000000     1.473000000     1.311000000
C    -3.414000000    -0.690000000     2.950000000
C    -3.484000000    -1.798000000     2.120000000
H    -2.950000000    -2.703000000     2.398000000
C    -4.190000000    -1.724000000     0.913000000
O    -4.109000000    -2.785000000     0.110000000
C    -3.147000000    -2.733000000    -0.930000000
C    -2.415000000    -4.093000000    -1.120000000
C    -1.727000000    -4.392000000    -2.296000000
H    -1.817000000    -3.724000000    -3.150000000
C    -2.143000000    -4.756000000     0.037000000
H    -2.604000000    -4.519000000     0.992000000
O    -3.863000000    -2.281000000    -2.130000000
H    -2.409000000    -1.975000000    -0.627000000
C    -4.883000000    -0.572000000     0.573000000
C    -5.541000000    -0.294000000    -0.812000000
H    -6.259000000     0.512000000    -0.649000000
H    -5.980000000    -1.229000000    -1.164000000
C    -4.499000000     0.062000000    -1.842000000
C    -4.285000000     1.404000000    -2.221000000
H    -4.860000000     2.185000000    -1.730000000
C    -3.702000000    -0.906000000    -2.419000000
C    -2.778000000    -0.570000000    -3.383000000
H    -2.130000000    -1.339000000    -3.796000000
C    -2.653000000     0.693000000    -3.816000000
O    -1.583000000     1.007000000    -4.562000000
C    -0.374000000     1.485000000    -3.938000000
C     0.919000000     0.717000000    -4.434000000
C     0.716000000    -0.463000000    -5.186000000
H    -0.293000000    -0.725000000    -5.494000000
C     2.240000000     1.222000000    -4.276000000
H     2.421000000     2.160000000    -3.757000000
O    -0.265000000     2.914000000    -4.150000000
H    -0.406000000     1.220000000    -2.871000000
C    -3.321000000     1.708000000    -3.204000000
C    -2.965000000     3.162000000    -3.534000000
H    -3.928000000     3.660000000    -3.403000000
H    -2.805000000     3.276000000    -4.608000000
C    -1.918000000     3.757000000    -2.655000000
C    -0.552000000     3.605000000    -3.008000000
C     0.421000000     3.983000000    -2.104000000
H     1.471000000     3.787000000    -2.303000000
C     0.082000000     4.631000000    -0.920000000
O     1.102000000     4.924000000    -0.046000000
C     1.494000000     4.051000000     1.000000000
H     1.200000000     3.004000000     0.833000000
C     3.058000000     4.082000000     1.209000000
C     3.526000000     3.606000000     2.389000000
H     2.907000000     3.511000000     3.277000000
C     3.864000000     4.213000000     0.123000000
H     3.435000000     4.293000000    -0.873000000
C     5.226000000     3.838000000     0.211000000
O     6.080000000     3.734000000    -0.838000000
C     5.744000000     3.483000000     1.460000000
H     6.801000000     3.268000000     1.596000000
C     4.938000000     3.437000000     2.541000000
O     5.425000000     3.118000000     3.765000000
C     4.788000000     2.281000000     4.665000000
C     4.458000000     1.002000000     4.252000000
H     4.822000000     0.724000000     3.266000000
C     4.413000000     2.684000000     5.942000000
H     4.659000000     3.708000000     6.212000000
C     3.692000000     1.859000000     6.779000000
H     3.441000000     2.220000000     7.773000000
C     3.247000000     0.561000000     6.373000000
H     2.758000000    -0.158000000     7.025000000
C     3.667000000     0.152000000     5.074000000
O     3.388000000    -1.179000000     4.759000000
C     2.105000000    -1.652000000     4.603000000
C     1.835000000    -3.036000000     4.896000000
H     2.619000000    -3.750000000     5.136000000
C     0.507000000    -3.456000000     4.912000000
O     0.211000000    -4.746000000     5.297000000
C    -0.692000000    -5.540000000     4.553000000
C    -0.581000000    -5.662000000     3.169000000
H     0.194000000    -5.116000000     2.637000000
C    -1.695000000    -6.307000000     5.195000000
H    -1.759000000    -6.158000000     6.270000000
C    -2.442000000    -7.225000000     4.467000000
H    -3.077000000    -7.909000000     5.025000000
C    -2.189000000    -7.438000000     3.074000000
H    -2.754000000    -8.167000000     2.497000000
C    -1.339000000    -6.562000000     2.400000000
O    -1.090000000    -6.775000000     1.028000000
C    -1.242000000    -5.878000000    -0.005000000
C    -0.638000000    -6.232000000    -1.202000000
H     0.059000000    -7.062000000    -1.126000000
C    -0.884000000    -5.475000000    -2.393000000
O    -0.032000000    -5.700000000    -3.390000000
C    -0.096000000    -4.906000000    -4.552000000
C     0.849000000    -3.873000000    -4.808000000
H     1.505000000    -3.556000000    -4.002000000
C    -0.954000000    -5.361000000    -5.582000000
H    -1.589000000    -6.217000000    -5.367000000
C    -0.865000000    -4.863000000    -6.845000000
H    -1.505000000    -5.192000000    -7.660000000
C     0.079000000    -3.867000000    -7.114000000
H     0.174000000    -3.448000000    -8.113000000
C     0.844000000    -3.317000000    -6.139000000
O     1.592000000    -2.233000000    -6.522000000
C     1.804000000    -1.111000000    -5.714000000
C     3.113000000    -0.649000000    -5.456000000
H     3.917000000    -1.196000000    -5.940000000
C     3.351000000     0.558000000    -4.793000000
O     4.640000000     1.077000000    -4.633000000
C     4.900000000     2.303000000    -4.077000000
C     4.749000000     3.462000000    -4.785000000
H     4.455000000     3.417000000    -5.831000000
C     5.008000000     4.668000000    -4.240000000
H     4.853000000     5.631000000    -4.719000000
C     5.430000000     4.742000000    -2.891000000
H     5.744000000     5.677000000    -2.435000000
C     5.545000000     3.611000000    -2.136000000
C     5.304000000     2.400000000    -2.704000000
H     5.381000000     1.524000000    -2.066000000
C     0.616000000    -2.313000000     0.259000000
H     0.324000000    -3.300000000     0.608000000
C    -0.180000000    -1.172000000     0.510000000
H    -1.059000000    -1.247000000     1.144000000
C     0.202000000     0.093000000    -0.062000000
H    -0.467000000     0.981000000     0.179000000
C     1.341000000     0.286000000    -0.826000000
H     1.600000000     1.281000000    -1.177000000
C     2.129000000    -0.876000000    -0.943000000
H     3.059000000    -0.743000000    -1.491000000
C     1.853000000    -2.167000000    -0.500000000
C     2.835000000    -3.278000000    -0.825000000
O     3.731000000    -3.225000000    -1.647000000
O     2.721000000    -4.333000000    -0.249000000
O     5.186000000    -4.983000000     3.679000000
H     4.768000000    -4.423000000     3.025000000
H     4.532000000    -5.655000000     3.872000000
O     2.553000000    -6.367000000    -2.044000000
H     2.030000000    -6.292000000    -2.842000000
H     2.505000000    -5.498000000    -1.644000000
O     2.915000000    -6.459000000    -4.892000000
H     2.554000000    -6.869000000    -5.678000000
H     3.433000000    -7.149000000    -4.478000000
O     6.078000000    -1.947000000    -4.837000000
H     6.824000000    -2.490000000    -5.091000000
H     5.369000000    -2.571000000    -4.684000000
O     8.583000000    -6.450000000    -2.135000000
H     7.716000000    -6.218000000    -2.467000000
H     8.753000000    -7.320000000    -2.494000000
O     7.184000000     0.208000000    -0.585000000
H     7.048000000    -0.077000000     0.318000000
H     6.626000000    -0.369000000    -1.106000000
O     7.814000000    -3.903000000     1.652000000
H     7.053000000    -4.366000000     1.300000000
H     8.566000000    -4.412000000     1.350000000
O     5.907000000    -5.335000000     0.467000000
H     5.006000000    -5.148000000     0.729000000
H     5.862000000    -5.447000000    -0.483000000
O     6.979000000    -2.990000000     5.129000000
H     6.256000000    -3.062000000     5.752000000
H     6.666000000    -3.442000000     4.346000000
O     6.266000000    -1.503000000     1.617000000
H     5.479000000    -2.005000000     1.830000000
H     6.926000000    -2.167000000     1.416000000
O     5.806000000    -5.990000000    -2.286000000
H     5.247000000    -5.244000000    -2.505000000
H     5.478000000    -6.703000000    -2.834000000
O     4.505000000    -4.380000000    -7.264000000
H     4.266000000    -3.705000000    -6.628000000
H     3.668000000    -4.734000000    -7.564000000
O     1.060000000    -9.081000000     2.312000000
H     1.219000000    -8.146000000     2.179000000
H     1.881000000    -9.503000000     2.057000000
O     3.504000000    -8.761000000    -1.083000000
H     3.460000000    -7.831000000    -1.306000000
H     2.990000000    -9.195000000    -1.765000000
O     3.220000000    -6.804000000     3.881000000
H     3.144000000    -6.712000000     2.931000000
H     3.838000000    -7.525000000     4.003000000
O     4.002000000    -3.112000000     2.024000000
H     3.577000000    -3.293000000     1.186000000
H     3.317000000    -2.710000000     2.558000000
O     4.120000000    -4.112000000    -4.214000000
H     3.861000000    -3.775000000    -3.357000000
H     3.499000000    -4.819000000    -4.391000000
O     5.844000000    -1.666000000    -1.907000000
H     5.991000000    -1.398000000    -2.814000000
H     5.161000000    -2.335000000    -1.963000000
O     2.685000000    -6.435000000     1.159000000
H     2.704000000    -5.605000000     0.681000000
H     2.934000000    -7.091000000     0.508000000
