215
-1435.48483
C    -0.272000000    -2.059000000     5.186000000
H    -1.058000000    -2.678000000     4.760000000
C    -0.223000000    -0.652000000     5.144000000
C     0.852000000    -0.014000000     5.766000000
H     1.002000000     1.061000000     5.822000000
C    -1.321000000     0.062000000     4.371000000
O    -2.634000000    -0.550000000     4.544000000
H    -1.016000000    -0.147000000     3.335000000
O    -1.479000000     1.426000000     4.674000000
C    -1.762000000     2.378000000     3.700000000
C    -0.640000000     3.104000000     3.294000000
H     0.235000000     3.002000000     3.930000000
C    -0.797000000     3.981000000     2.260000000
O     0.376000000     4.380000000     1.742000000
C    -1.983000000     4.113000000     1.485000000
C    -2.101000000     5.084000000     0.273000000
H    -3.037000000     5.642000000     0.200000000
C    -1.713000000     4.469000000    -1.060000000
C    -2.718000000     3.986000000    -1.900000000
H    -3.745000000     4.037000000    -1.546000000
H    -1.399000000     5.893000000     0.486000000
C    -3.140000000     3.441000000     1.958000000
H    -4.136000000     3.636000000     1.569000000
C    -2.999000000     2.553000000     3.099000000
C    -4.260000000     1.736000000     3.542000000
H    -5.196000000     2.272000000     3.373000000
H    -4.181000000     1.537000000     4.612000000
C    -4.152000000     0.369000000     2.831000000
C    -4.733000000     0.191000000     1.569000000
H    -5.179000000     1.066000000     1.103000000
C    -3.425000000    -0.734000000     3.473000000
C    -3.365000000    -1.945000000     2.787000000
H    -2.693000000    -2.711000000     3.165000000
C    -3.936000000    -2.053000000     1.502000000
O    -3.554000000    -3.101000000     0.670000000
C    -2.511000000    -2.711000000    -0.344000000
C    -1.411000000    -3.781000000    -0.484000000
C    -0.519000000    -3.887000000    -1.582000000
H    -0.638000000    -3.211000000    -2.425000000
C    -1.101000000    -4.598000000     0.616000000
H    -1.789000000    -4.665000000     1.455000000
O    -3.120000000    -2.677000000    -1.641000000
H    -2.126000000    -1.699000000    -0.147000000
C    -4.583000000    -0.986000000     0.868000000
C    -5.182000000    -1.064000000    -0.498000000
H    -6.045000000    -0.397000000    -0.458000000
H    -5.647000000    -2.034000000    -0.684000000
C    -4.330000000    -0.552000000    -1.653000000
C    -4.407000000     0.722000000    -2.221000000
H    -5.135000000     1.449000000    -1.870000000
C    -3.364000000    -1.443000000    -2.205000000
C    -2.466000000    -1.063000000    -3.195000000
H    -1.708000000    -1.724000000    -3.607000000
C    -2.662000000     0.177000000    -3.766000000
O    -1.803000000     0.547000000    -4.815000000
C    -0.529000000     1.163000000    -4.484000000
C     0.619000000     0.680000000    -5.388000000
C     0.654000000    -0.591000000    -5.884000000
H    -0.257000000    -1.164000000    -5.735000000
C     1.629000000     1.522000000    -5.551000000
H     1.615000000     2.539000000    -5.166000000
O    -0.779000000     2.569000000    -4.523000000
H    -0.263000000     0.900000000    -3.449000000
C    -3.581000000     1.110000000    -3.289000000
C    -3.569000000     2.537000000    -3.801000000
H    -4.487000000     3.051000000    -3.510000000
H    -3.419000000     2.537000000    -4.883000000
C    -2.459000000     3.252000000    -3.064000000
C    -1.098000000     3.145000000    -3.380000000
C    -0.092000000     3.798000000    -2.655000000
H     0.933000000     3.730000000    -3.010000000
C    -0.371000000     4.319000000    -1.435000000
O     0.655000000     4.612000000    -0.609000000
C     0.858000000     3.721000000     0.531000000
H     0.158000000     2.877000000     0.438000000
C     2.319000000     3.117000000     0.588000000
C     2.888000000     2.844000000     1.874000000
H     2.304000000     2.977000000     2.781000000
C     2.984000000     2.798000000    -0.585000000
H     2.607000000     2.981000000    -1.588000000
C     4.241000000     2.169000000    -0.429000000
O     4.976000000     1.765000000    -1.561000000
C     4.797000000     1.907000000     0.831000000
H     5.781000000     1.447000000     0.843000000
C     4.150000000     2.314000000     1.992000000
O     4.794000000     2.099000000     3.175000000
C     4.258000000     2.191000000     4.403000000
C     3.922000000     0.978000000     5.029000000
H     4.150000000     0.062000000     4.490000000
C     4.063000000     3.432000000     5.076000000
H     4.381000000     4.398000000     4.692000000
C     3.563000000     3.386000000     6.384000000
H     3.408000000     4.245000000     7.032000000
C     3.143000000     2.166000000     6.938000000
H     2.749000000     2.204000000     7.950000000
C     3.284000000     1.013000000     6.263000000
O     2.832000000    -0.008000000     7.002000000
C     1.788000000    -0.688000000     6.509000000
C     1.744000000    -2.101000000     6.469000000
H     2.483000000    -2.677000000     7.021000000
C     0.711000000    -2.825000000     5.828000000
O     0.570000000    -4.246000000     5.909000000
C    -0.150000000    -4.976000000     4.953000000
C     0.429000000    -5.217000000     3.726000000
H     1.402000000    -4.758000000     3.567000000
C    -1.432000000    -5.473000000     5.226000000
H    -1.881000000    -5.257000000     6.192000000
C    -2.219000000    -6.195000000     4.337000000
H    -3.287000000    -6.344000000     4.472000000
C    -1.553000000    -6.522000000     3.124000000
H    -2.010000000    -7.239000000     2.447000000
C    -0.231000000    -6.056000000     2.792000000
O     0.307000000    -6.279000000     1.577000000
C    -0.011000000    -5.461000000     0.538000000
C     0.808000000    -5.642000000    -0.639000000
H     1.697000000    -6.267000000    -0.657000000
C     0.523000000    -4.765000000    -1.707000000
O     1.205000000    -4.952000000    -2.897000000
C     0.846000000    -4.592000000    -4.171000000
C     1.628000000    -3.629000000    -4.842000000
H     2.388000000    -3.058000000    -4.315000000
C    -0.113000000    -5.303000000    -4.823000000
H    -0.761000000    -5.960000000    -4.247000000
C    -0.266000000    -5.212000000    -6.215000000
H    -1.035000000    -5.781000000    -6.731000000
C     0.408000000    -4.187000000    -6.876000000
H     0.139000000    -4.075000000    -7.924000000
C     1.260000000    -3.367000000    -6.166000000
O     1.873000000    -2.356000000    -6.837000000
C     1.832000000    -1.020000000    -6.412000000
C     2.971000000    -0.186000000    -6.564000000
H     3.875000000    -0.525000000    -7.064000000
C     2.787000000     1.176000000    -6.185000000
O     3.890000000     2.024000000    -6.328000000
C     4.532000000     2.600000000    -5.180000000
C     4.969000000     3.892000000    -5.304000000
H     4.897000000     4.417000000    -6.253000000
C     5.518000000     4.471000000    -4.131000000
H     5.635000000     5.550000000    -4.070000000
C     5.535000000     3.728000000    -2.923000000
H     5.967000000     4.178000000    -2.033000000
C     4.931000000     2.479000000    -2.791000000
C     4.441000000     1.880000000    -3.960000000
H     4.038000000     0.872000000    -3.899000000
C     2.040000000    -2.522000000     0.631000000
H     2.009000000    -3.262000000     1.427000000
C     0.977000000    -1.547000000     0.643000000
H     0.233000000    -1.590000000     1.435000000
C     0.904000000    -0.517000000    -0.273000000
H     0.100000000     0.202000000    -0.293000000
C     1.741000000    -0.566000000    -1.377000000
H     1.777000000     0.245000000    -2.100000000
C     2.737000000    -1.530000000    -1.420000000
H     3.402000000    -1.558000000    -2.279000000
C     2.914000000    -2.488000000    -0.426000000
C     3.935000000    -3.560000000    -0.538000000
O     4.636000000    -3.735000000    -1.511000000
O     4.039000000    -4.312000000     0.412000000
O     6.091000000    -4.098000000     5.171000000
H     5.628000000    -4.712000000     5.740000000
H     5.441000000    -3.839000000     4.518000000
O     3.855000000    -7.016000000     1.423000000
H     3.465000000    -6.918000000     2.292000000
H     3.752000000    -6.156000000     1.016000000
O     4.637000000    -1.049000000     1.927000000
H     3.982000000    -1.071000000     1.230000000
H     4.456000000    -1.830000000     2.451000000
O     4.942000000    -2.571000000    -4.101000000
H     4.924000000    -3.308000000    -3.491000000
H     5.455000000    -1.900000000    -3.651000000
O     7.167000000    -6.411000000     3.099000000
H     7.044000000    -5.552000000     3.502000000
H     7.549000000    -6.949000000     3.793000000
O     5.095000000    -6.499000000    -2.339000000
H     5.669000000    -6.916000000    -1.696000000
H     4.818000000    -5.684000000    -1.919000000
O     3.535000000    -6.394000000     4.094000000
H     2.856000000    -7.055000000     4.228000000
H     3.920000000    -6.267000000     4.961000000
O     6.516000000    -6.053000000    -5.602000000
H     6.731000000    -6.986000000    -5.627000000
H     6.633000000    -5.805000000    -4.686000000
O     7.010000000    -1.708000000     0.765000000
H     6.679000000    -2.605000000     0.824000000
H     6.397000000    -1.192000000     1.289000000
O     8.371000000    -5.637000000    -3.309000000
H     8.887000000    -6.335000000    -3.713000000
H     7.751000000    -6.095000000    -2.742000000
O     7.169000000    -3.002000000    -2.142000000
H     7.701000000    -3.795000000    -2.082000000
H     6.361000000    -3.220000000    -1.678000000
O     3.411000000    -8.672000000    -1.193000000
H     3.744000000    -7.935000000    -1.703000000
H     2.744000000    -9.069000000    -1.753000000
O     6.115000000    -8.427000000     0.986000000
H     6.142000000    -8.903000000     1.816000000
H     5.456000000    -7.746000000     1.121000000
O     6.610000000    -5.226000000     0.493000000
H     6.904000000    -5.707000000     1.266000000
H     5.666000000    -5.128000000     0.616000000
O     8.935000000    -0.403000000    -0.731000000
H     8.311000000    -0.908000000    -0.210000000
H     9.792000000    -0.749000000    -0.481000000
O     2.842000000    -7.132000000    -4.329000000
H     2.297000000    -6.345000000    -4.343000000
H     3.620000000    -6.874000000    -3.834000000
O     7.274000000    -7.936000000    -1.248000000
H     8.143000000    -7.771000000    -0.882000000
H     6.769000000    -8.288000000    -0.515000000
O     6.917000000    -0.115000000    -2.997000000
H     6.436000000     0.483000000    -2.424000000
H     7.217000000    -0.814000000    -2.416000000
O     4.159000000    -3.756000000     3.148000000
H     4.064000000    -4.058000000     2.245000000
H     3.874000000    -4.499000000     3.680000000
