215
-1456.67151
C    -0.092000000    -3.090000000     4.466000000
H    -0.948000000    -3.747000000     4.598000000
C    -0.215000000    -1.745000000     4.230000000
C     0.914000000    -0.997000000     4.258000000
H     0.777000000     0.057000000     4.031000000
C    -1.472000000    -1.058000000     3.777000000
O    -2.667000000    -1.849000000     4.053000000
H    -1.373000000    -0.881000000     2.695000000
O    -1.714000000     0.231000000     4.418000000
C    -2.034000000     1.345000000     3.593000000
C    -1.059000000     2.239000000     3.383000000
H    -0.035000000     2.121000000     3.727000000
C    -1.370000000     3.378000000     2.559000000
O    -0.407000000     4.341000000     2.313000000
C    -2.605000000     3.534000000     1.928000000
C    -2.882000000     4.663000000     0.925000000
H    -3.967000000     4.743000000     0.830000000
C    -2.413000000     4.302000000    -0.426000000
C    -3.272000000     3.674000000    -1.361000000
H    -4.278000000     3.428000000    -1.031000000
H    -2.426000000     5.630000000     1.149000000
C    -3.625000000     2.591000000     2.191000000
H    -4.622000000     2.665000000     1.763000000
C    -3.345000000     1.518000000     3.080000000
C    -4.451000000     0.532000000     3.482000000
H    -5.466000000     0.907000000     3.335000000
H    -4.445000000     0.256000000     4.538000000
C    -4.372000000    -0.724000000     2.630000000
C    -4.864000000    -0.662000000     1.348000000
H    -5.416000000     0.236000000     1.083000000
C    -3.556000000    -1.809000000     3.005000000
C    -3.448000000    -2.887000000     2.167000000
H    -2.778000000    -3.708000000     2.409000000
C    -3.936000000    -2.798000000     0.855000000
O    -3.548000000    -3.763000000    -0.054000000
C    -2.461000000    -3.373000000    -0.933000000
C    -1.342000000    -4.408000000    -0.942000000
C    -0.333000000    -4.268000000    -1.901000000
H    -0.353000000    -3.410000000    -2.567000000
C    -1.244000000    -5.489000000    -0.046000000
H    -1.999000000    -5.670000000     0.714000000
O    -2.918000000    -3.058000000    -2.248000000
H    -1.977000000    -2.459000000    -0.558000000
C    -4.664000000    -1.707000000     0.484000000
C    -5.166000000    -1.580000000    -0.990000000
H    -6.068000000    -0.966000000    -1.026000000
H    -5.438000000    -2.554000000    -1.400000000
C    -4.205000000    -0.970000000    -1.936000000
C    -4.403000000     0.362000000    -2.356000000
H    -5.238000000     0.948000000    -1.982000000
C    -3.166000000    -1.710000000    -2.535000000
C    -2.280000000    -1.102000000    -3.445000000
H    -1.336000000    -1.559000000    -3.731000000
C    -2.436000000     0.256000000    -3.780000000
O    -1.475000000     0.866000000    -4.654000000
C    -0.499000000     1.753000000    -4.015000000
C     0.867000000     1.473000000    -4.700000000
C     1.133000000     0.175000000    -5.082000000
H     0.321000000    -0.547000000    -5.090000000
C     1.879000000     2.433000000    -4.699000000
H     1.556000000     3.389000000    -4.295000000
O    -0.946000000     3.040000000    -4.027000000
H    -0.521000000     1.403000000    -2.973000000
C    -3.500000000     0.951000000    -3.268000000
C    -3.688000000     2.417000000    -3.485000000
H    -4.744000000     2.649000000    -3.332000000
H    -3.443000000     2.679000000    -4.517000000
C    -2.754000000     3.243000000    -2.577000000
C    -1.440000000     3.586000000    -2.934000000
C    -0.671000000     4.211000000    -2.012000000
H     0.328000000     4.492000000    -2.335000000
C    -1.135000000     4.628000000    -0.839000000
O    -0.214000000     5.186000000    -0.020000000
C     0.348000000     4.318000000     1.003000000
H     0.279000000     3.313000000     0.563000000
C     1.839000000     4.447000000     1.166000000
C     2.429000000     4.162000000     2.426000000
H     1.879000000     4.130000000     3.363000000
C     2.599000000     4.855000000     0.058000000
H     2.118000000     5.318000000    -0.799000000
C     3.987000000     4.837000000     0.261000000
O     4.840000000     5.192000000    -0.788000000
C     4.609000000     4.481000000     1.491000000
H     5.690000000     4.458000000     1.601000000
C     3.839000000     4.124000000     2.565000000
O     4.358000000     4.009000000     3.837000000
C     3.982000000     2.953000000     4.667000000
C     3.801000000     1.703000000     4.087000000
H     4.053000000     1.537000000     3.043000000
C     3.736000000     3.071000000     6.075000000
H     3.810000000     4.008000000     6.621000000
C     3.170000000     2.035000000     6.823000000
H     2.838000000     2.102000000     7.856000000
C     3.012000000     0.779000000     6.201000000
H     2.523000000     0.013000000     6.797000000
C     3.331000000     0.578000000     4.860000000
O     3.330000000    -0.673000000     4.304000000
C     2.185000000    -1.488000000     4.407000000
C     2.267000000    -2.868000000     4.539000000
H     3.230000000    -3.373000000     4.518000000
C     1.170000000    -3.627000000     4.661000000
O     1.309000000    -4.972000000     4.808000000
C     0.569000000    -5.918000000     4.174000000
C     0.620000000    -6.053000000     2.800000000
H     0.977000000    -5.288000000     2.115000000
C     0.079000000    -6.975000000     4.975000000
H     0.068000000    -6.913000000     6.060000000
C    -0.638000000    -8.035000000     4.389000000
H    -1.095000000    -8.806000000     5.004000000
C    -0.710000000    -8.123000000     3.025000000
H    -1.302000000    -8.897000000     2.543000000
C    -0.034000000    -7.147000000     2.275000000
O    -0.026000000    -7.367000000     0.913000000
C    -0.134000000    -6.392000000    -0.072000000
C     0.890000000    -6.138000000    -0.989000000
H     1.794000000    -6.732000000    -0.880000000
C     0.761000000    -5.075000000    -1.915000000
O     1.794000000    -4.710000000    -2.657000000
C     1.707000000    -4.256000000    -3.945000000
C     2.301000000    -3.050000000    -4.313000000
H     2.772000000    -2.470000000    -3.523000000
C     1.102000000    -5.047000000    -4.900000000
H     0.690000000    -5.981000000    -4.527000000
C     1.029000000    -4.616000000    -6.202000000
H     0.453000000    -5.132000000    -6.965000000
C     1.620000000    -3.391000000    -6.532000000
H     1.525000000    -2.931000000    -7.512000000
C     2.257000000    -2.595000000    -5.578000000
O     2.809000000    -1.409000000    -5.979000000
C     2.458000000    -0.145000000    -5.508000000
C     3.496000000     0.811000000    -5.499000000
H     4.503000000     0.600000000    -5.850000000
C     3.201000000     2.124000000    -5.095000000
O     4.220000000     3.080000000    -5.106000000
C     4.170000000     4.225000000    -4.220000000
C     3.777000000     5.421000000    -4.815000000
H     3.605000000     5.397000000    -5.888000000
C     3.845000000     6.618000000    -4.061000000
H     3.686000000     7.591000000    -4.519000000
C     4.154000000     6.451000000    -2.669000000
H     4.214000000     7.309000000    -2.005000000
C     4.487000000     5.251000000    -2.087000000
C     4.451000000     4.137000000    -2.893000000
H     4.676000000     3.181000000    -2.427000000
C     1.884000000    -1.064000000     0.696000000
H     2.555000000    -1.829000000     1.080000000
C     0.527000000    -1.275000000     0.717000000
H     0.042000000    -2.158000000     1.127000000
C    -0.342000000    -0.315000000     0.307000000
H    -1.489000000    -0.470000000     0.393000000
C     0.134000000     0.830000000    -0.372000000
H    -0.611000000     1.513000000    -0.772000000
C     1.476000000     1.025000000    -0.439000000
H     1.764000000     1.961000000    -0.910000000
C     2.405000000     0.121000000     0.092000000
C     3.888000000     0.402000000     0.068000000
O     4.478000000     1.252000000    -0.553000000
O     4.660000000    -0.492000000     0.503000000
O     6.992000000     4.051000000    -5.539000000
H     6.627000000     3.457000000    -4.883000000
H     6.266000000     4.221000000    -6.138000000
O     4.326000000    -3.333000000    -0.605000000
H     3.966000000    -3.184000000    -1.479000000
H     4.604000000    -2.466000000    -0.310000000
O     8.820000000    -0.251000000    -0.874000000
H     9.013000000    -0.732000000    -1.678000000
H     9.464000000    -0.571000000    -0.242000000
O     7.409000000     1.319000000     6.213000000
H     7.369000000     1.349000000     5.257000000
H     6.832000000     0.594000000     6.455000000
O     5.802000000    -3.505000000    -3.968000000
H     5.730000000    -2.673000000    -3.501000000
H     6.724000000    -3.749000000    -3.883000000
O     7.722000000    -3.742000000     5.132000000
H     7.223000000    -3.060000000     4.681000000
H     7.111000000    -4.474000000     5.209000000
O     9.516000000    -0.740000000     3.864000000
H     8.648000000    -0.618000000     3.480000000
H     9.347000000    -0.901000000     4.792000000
O     9.263000000    -1.867000000    -3.314000000
H     9.032000000    -1.184000000    -3.943000000
H    10.139000000    -2.149000000    -3.576000000
O     7.482000000     1.902000000     3.302000000
H     7.237000000     1.508000000     2.464000000
H     7.687000000     2.812000000     3.087000000
O     5.843000000    -1.357000000    -1.850000000
H     5.688000000    -0.632000000    -1.245000000
H     6.344000000    -1.992000000    -1.339000000
O     6.435000000    -1.617000000     3.960000000
H     6.753000000    -1.423000000     3.078000000
H     5.588000000    -1.173000000     4.011000000
O     4.490000000    -4.413000000     2.054000000
H     5.134000000    -3.866000000     2.504000000
H     4.432000000    -4.039000000     1.174000000
O     8.802000000     3.980000000     1.565000000
H     9.727000000     3.948000000     1.808000000
H     8.808000000     4.149000000     0.623000000
O     7.171000000    -0.805000000     1.529000000
H     6.300000000    -0.797000000     1.132000000
H     7.769000000    -0.652000000     0.797000000
O     9.095000000     3.805000000    -1.158000000
H     8.352000000     3.203000000    -1.124000000
H     9.020000000     4.229000000    -2.014000000
O     7.287000000     2.134000000    -3.303000000
H     7.699000000     1.278000000    -3.424000000
H     7.160000000     2.206000000    -2.357000000
O     7.003000000     2.025000000    -0.760000000
H     7.485000000     1.211000000    -0.616000000
H     6.093000000     1.802000000    -0.562000000
O     5.266000000    -5.997000000    -0.349000000
H     5.033000000    -5.080000000    -0.490000000
H     4.797000000    -6.244000000     0.448000000
O     7.186000000    -3.893000000    -0.891000000
H     7.590000000    -4.264000000    -1.676000000
H     7.189000000    -4.611000000    -0.258000000
