215
-1456.31088
C     0.583000000    -3.169000000     4.272000000
H    -0.257000000    -3.595000000     3.728000000
C     0.546000000    -1.784000000     4.499000000
C     1.682000000    -1.087000000     4.940000000
H     1.593000000    -0.035000000     5.197000000
C    -0.764000000    -1.070000000     4.105000000
O    -1.951000000    -1.921000000     4.250000000
H    -0.569000000    -0.841000000     3.046000000
O    -0.911000000     0.122000000     4.913000000
C    -1.327000000     1.276000000     4.259000000
C    -0.290000000     2.125000000     3.857000000
H     0.726000000     1.828000000     4.104000000
C    -0.562000000     3.230000000     3.063000000
O     0.481000000     4.002000000     2.640000000
C    -1.912000000     3.495000000     2.687000000
C    -2.253000000     4.729000000     1.847000000
H    -3.253000000     5.058000000     2.137000000
C    -2.124000000     4.525000000     0.401000000
C    -3.159000000     4.087000000    -0.371000000
H    -4.129000000     3.920000000     0.090000000
H    -1.579000000     5.568000000     2.030000000
C    -2.900000000     2.513000000     2.965000000
H    -3.926000000     2.524000000     2.606000000
C    -2.647000000     1.515000000     3.906000000
C    -3.747000000     0.471000000     4.136000000
H    -4.747000000     0.893000000     4.017000000
H    -3.680000000     0.006000000     5.121000000
C    -3.722000000    -0.674000000     3.129000000
C    -4.597000000    -0.603000000     2.086000000
H    -5.276000000     0.244000000     2.041000000
C    -2.902000000    -1.783000000     3.282000000
C    -2.981000000    -2.763000000     2.303000000
H    -2.314000000    -3.620000000     2.353000000
C    -3.739000000    -2.598000000     1.193000000
O    -3.541000000    -3.415000000     0.128000000
C    -2.647000000    -3.030000000    -0.890000000
C    -1.525000000    -3.997000000    -1.215000000
C    -0.773000000    -3.818000000    -2.394000000
H    -1.169000000    -3.120000000    -3.128000000
C    -1.138000000    -5.018000000    -0.343000000
H    -1.720000000    -5.104000000     0.570000000
O    -3.447000000    -2.646000000    -2.012000000
H    -2.156000000    -2.171000000    -0.410000000
C    -4.554000000    -1.506000000     1.045000000
C    -5.406000000    -1.385000000    -0.160000000
H    -6.311000000    -0.861000000     0.154000000
H    -5.778000000    -2.317000000    -0.589000000
C    -4.697000000    -0.654000000    -1.322000000
C    -4.786000000     0.716000000    -1.513000000
H    -5.442000000     1.196000000    -0.791000000
C    -3.808000000    -1.365000000    -2.180000000
C    -3.149000000    -0.691000000    -3.199000000
H    -2.619000000    -1.359000000    -3.874000000
C    -3.207000000     0.645000000    -3.256000000
O    -2.392000000     1.246000000    -4.201000000
C    -1.173000000     1.834000000    -3.655000000
C     0.005000000     1.708000000    -4.585000000
C     0.138000000     0.536000000    -5.302000000
H    -0.642000000    -0.220000000    -5.301000000
C     1.037000000     2.668000000    -4.766000000
H     0.959000000     3.664000000    -4.338000000
O    -1.400000000     3.199000000    -3.408000000
H    -0.985000000     1.442000000    -2.644000000
C    -4.069000000     1.355000000    -2.470000000
C    -4.171000000     2.887000000    -2.445000000
H    -5.137000000     3.184000000    -2.030000000
H    -4.297000000     3.341000000    -3.430000000
C    -3.002000000     3.561000000    -1.660000000
C    -1.718000000     3.666000000    -2.165000000
C    -0.666000000     4.282000000    -1.487000000
H     0.293000000     4.479000000    -1.961000000
C    -0.813000000     4.681000000    -0.183000000
O     0.320000000     4.966000000     0.573000000
C     0.910000000     3.879000000     1.264000000
H     0.428000000     2.970000000     0.874000000
C     2.414000000     3.745000000     1.115000000
C     3.141000000     2.930000000     1.970000000
H     2.680000000     2.530000000     2.869000000
C     2.959000000     4.239000000    -0.071000000
H     2.313000000     4.794000000    -0.747000000
C     4.250000000     3.869000000    -0.338000000
O     4.940000000     4.142000000    -1.505000000
C     5.060000000     3.241000000     0.616000000
H     6.121000000     3.085000000     0.439000000
C     4.470000000     2.682000000     1.710000000
O     5.201000000     1.947000000     2.527000000
C     4.959000000     1.645000000     3.846000000
C     4.287000000     0.497000000     4.171000000
H     3.803000000    -0.114000000     3.413000000
C     5.612000000     2.405000000     4.758000000
H     6.033000000     3.368000000     4.479000000
C     5.476000000     2.037000000     6.087000000
H     5.926000000     2.643000000     6.869000000
C     4.916000000     0.870000000     6.459000000
H     4.977000000     0.634000000     7.518000000
C     4.232000000     0.157000000     5.501000000
O     3.782000000    -1.070000000     5.929000000
C     2.813000000    -1.785000000     5.277000000
C     2.848000000    -3.183000000     5.128000000
H     3.699000000    -3.747000000     5.500000000
C     1.770000000    -3.846000000     4.586000000
O     1.918000000    -5.175000000     4.255000000
C     0.975000000    -5.911000000     3.666000000
C     0.896000000    -5.964000000     2.256000000
H     1.580000000    -5.371000000     1.654000000
C     0.128000000    -6.668000000     4.436000000
H     0.101000000    -6.579000000     5.519000000
C    -0.684000000    -7.615000000     3.752000000
H    -1.196000000    -8.409000000     4.290000000
C    -0.845000000    -7.591000000     2.375000000
H    -1.435000000    -8.334000000     1.846000000
C    -0.009000000    -6.745000000     1.613000000
O     0.057000000    -6.988000000     0.280000000
C    -0.143000000    -5.891000000    -0.628000000
C     0.525000000    -5.776000000    -1.825000000
H     1.122000000    -6.626000000    -2.145000000
C     0.236000000    -4.721000000    -2.679000000
O     0.993000000    -4.641000000    -3.871000000
C     0.520000000    -4.010000000    -5.009000000
C     1.026000000    -2.781000000    -5.366000000
H     1.831000000    -2.299000000    -4.817000000
C    -0.409000000    -4.669000000    -5.740000000
H    -0.854000000    -5.632000000    -5.500000000
C    -0.838000000    -4.019000000    -6.958000000
H    -1.615000000    -4.513000000    -7.536000000
C    -0.365000000    -2.783000000    -7.370000000
H    -0.785000000    -2.324000000    -8.261000000
C     0.600000000    -2.080000000    -6.519000000
O     1.227000000    -0.893000000    -6.940000000
C     1.215000000     0.331000000    -6.204000000
C     2.223000000     1.255000000    -6.356000000
H     3.034000000     0.983000000    -7.027000000
C     2.112000000     2.470000000    -5.673000000
O     3.170000000     3.392000000    -5.865000000
C     3.509000000     4.250000000    -4.841000000
C     2.944000000     5.566000000    -4.889000000
H     2.517000000     5.911000000    -5.827000000
C     3.159000000     6.385000000    -3.737000000
H     2.756000000     7.394000000    -3.713000000
C     3.783000000     5.825000000    -2.682000000
H     3.874000000     6.396000000    -1.762000000
C     4.342000000     4.569000000    -2.672000000
C     4.315000000     3.798000000    -3.832000000
H     4.689000000     2.782000000    -3.938000000
C     2.611000000    -1.093000000     1.064000000
H     2.863000000    -1.916000000     1.728000000
C     1.278000000    -0.831000000     0.896000000
H     0.559000000    -1.371000000     1.507000000
C     0.823000000     0.152000000     0.014000000
H    -0.193000000     0.256000000    -0.181000000
C     1.827000000     0.887000000    -0.697000000
H     1.502000000     1.636000000    -1.415000000
C     3.171000000     0.628000000    -0.442000000
H     3.870000000     1.244000000    -1.002000000
C     3.570000000    -0.408000000     0.359000000
C     5.037000000    -0.644000000     0.746000000
O     5.856000000    -0.174000000    -0.066000000
O     5.454000000    -1.328000000     1.693000000
O    10.630000000     1.258000000     2.037000000
H     9.970000000     0.592000000     2.229000000
H    10.127000000     2.063000000     1.910000000
O     8.043000000     1.492000000    -0.468000000
H     8.667000000     0.795000000    -0.668000000
H     7.293000000     1.039000000    -0.084000000
O     9.848000000    -0.617000000    -1.088000000
H    10.691000000    -0.165000000    -1.106000000
H    10.017000000    -1.421000000    -0.596000000
O     8.179000000    -1.448000000    -4.193000000
H     8.883000000    -2.094000000    -4.138000000
H     7.897000000    -1.323000000    -3.287000000
O     6.495000000    -3.533000000     0.505000000
H     5.965000000    -2.813000000     0.847000000
H     7.286000000    -3.526000000     1.045000000
O     7.126000000     4.807000000     2.415000000
H     7.053000000     5.539000000     1.802000000
H     6.246000000     4.431000000     2.445000000
O     9.209000000     3.439000000     1.359000000
H     8.752000000     2.802000000     0.809000000
H     8.509000000     3.945000000     1.771000000
O     4.757000000    -5.184000000     2.670000000
H     4.769000000    -5.897000000     3.308000000
H     4.750000000    -5.624000000     1.820000000
O     4.204000000    -3.793000000    -2.274000000
H     4.972000000    -3.223000000    -2.286000000
H     3.461000000    -3.197000000    -2.364000000
O     8.084000000    -0.253000000     2.542000000
H     8.184000000    -1.118000000     2.145000000
H     7.179000000    -0.005000000     2.352000000
O     3.226000000    -0.995000000    -3.388000000
H     2.702000000    -0.746000000    -2.626000000
H     3.939000000    -0.357000000    -3.406000000
O     8.749000000    -3.858000000    -1.863000000
H     8.963000000    -4.150000000    -0.977000000
H     9.595000000    -3.790000000    -2.305000000
O     6.190000000    -2.980000000     3.914000000
H     6.010000000    -2.359000000     3.209000000
H     5.569000000    -3.694000000     3.769000000
O     9.036000000    -3.372000000     4.690000000
H     9.137000000    -3.007000000     5.569000000
H     8.099000000    -3.303000000     4.508000000
O     6.414000000    -2.065000000    -1.888000000
H     6.328000000    -1.655000000    -1.028000000
H     7.093000000    -2.730000000    -1.769000000
O     8.173000000     2.352000000    -2.865000000
H     8.736000000     3.101000000    -2.667000000
H     8.214000000     1.807000000    -2.079000000
O     5.882000000     0.237000000    -3.444000000
H     6.013000000    -0.443000000    -2.784000000
H     6.188000000     1.041000000    -3.025000000
O     9.000000000    -2.748000000     1.664000000
H     9.253000000    -3.192000000     2.473000000
H     9.667000000    -3.009000000     1.029000000
O     4.852000000    -5.678000000     0.057000000
H     5.351000000    -4.862000000     0.106000000
H     4.802000000    -5.872000000    -0.878000000
