215
-1485.46261
C    -0.292000000    -3.302000000     4.157000000
H    -0.964000000    -3.684000000     3.394000000
C    -0.754000000    -2.076000000     4.689000000
C     0.063000000    -1.431000000     5.631000000
H    -0.219000000    -0.414000000     5.891000000
C    -1.836000000    -1.321000000     3.877000000
O    -2.943000000    -2.191000000     3.528000000
H    -1.324000000    -1.083000000     2.933000000
O    -2.329000000    -0.077000000     4.482000000
C    -2.499000000     1.018000000     3.684000000
C    -1.509000000     1.983000000     3.666000000
H    -0.601000000     1.838000000     4.245000000
C    -1.699000000     3.103000000     2.897000000
O    -0.752000000     4.009000000     2.695000000
C    -2.840000000     3.241000000     2.088000000
C    -3.112000000     4.422000000     1.166000000
H    -4.194000000     4.490000000     1.029000000
C    -2.466000000     4.210000000    -0.253000000
C    -3.198000000     3.683000000    -1.328000000
H    -4.277000000     3.573000000    -1.253000000
H    -2.809000000     5.301000000     1.739000000
C    -3.871000000     2.326000000     2.159000000
H    -4.737000000     2.408000000     1.507000000
C    -3.736000000     1.179000000     2.961000000
C    -4.825000000     0.099000000     3.016000000
H    -5.814000000     0.435000000     2.696000000
H    -4.907000000    -0.407000000     3.980000000
C    -4.435000000    -0.966000000     1.947000000
C    -4.992000000    -0.946000000     0.663000000
H    -5.595000000    -0.067000000     0.450000000
C    -3.600000000    -2.054000000     2.333000000
C    -3.213000000    -2.897000000     1.337000000
H    -2.640000000    -3.774000000     1.627000000
C    -3.664000000    -2.801000000     0.001000000
O    -3.166000000    -3.677000000    -0.948000000
C    -2.093000000    -3.233000000    -1.735000000
C    -1.077000000    -4.268000000    -1.987000000
C    -0.347000000    -4.270000000    -3.175000000
H    -0.614000000    -3.590000000    -3.980000000
C    -0.837000000    -5.192000000    -0.957000000
H    -1.361000000    -5.214000000    -0.005000000
O    -2.607000000    -2.798000000    -3.008000000
H    -1.574000000    -2.353000000    -1.327000000
C    -4.581000000    -1.814000000    -0.313000000
C    -4.983000000    -1.598000000    -1.748000000
H    -6.021000000    -1.261000000    -1.758000000
H    -5.241000000    -2.605000000    -2.082000000
C    -3.995000000    -0.809000000    -2.685000000
C    -4.159000000     0.531000000    -2.909000000
H    -5.048000000     1.007000000    -2.503000000
C    -2.892000000    -1.468000000    -3.170000000
C    -1.896000000    -0.777000000    -3.872000000
H    -1.050000000    -1.331000000    -4.272000000
C    -2.055000000     0.605000000    -4.118000000
O    -0.999000000     1.268000000    -4.727000000
C    -0.278000000     2.035000000    -3.744000000
C     1.175000000     1.800000000    -4.010000000
C     1.697000000     0.524000000    -4.028000000
H     1.021000000    -0.296000000    -3.801000000
C     2.049000000     2.898000000    -4.206000000
H     1.717000000     3.922000000    -4.058000000
O    -0.558000000     3.437000000    -3.801000000
H    -0.504000000     1.590000000    -2.763000000
C    -3.178000000     1.297000000    -3.582000000
C    -3.361000000     2.772000000    -3.654000000
H    -4.425000000     3.014000000    -3.606000000
H    -3.011000000     3.156000000    -4.614000000
C    -2.616000000     3.417000000    -2.510000000
C    -1.267000000     3.776000000    -2.683000000
C    -0.530000000     4.337000000    -1.725000000
H     0.541000000     4.465000000    -1.861000000
C    -1.096000000     4.507000000    -0.484000000
O    -0.302000000     4.902000000     0.578000000
C     0.080000000     3.861000000     1.467000000
H    -0.123000000     2.887000000     0.998000000
C     1.517000000     3.942000000     1.824000000
C     1.988000000     3.146000000     2.900000000
H     1.219000000     2.643000000     3.481000000
C     2.429000000     4.621000000     0.971000000
H     2.147000000     5.239000000     0.123000000
C     3.782000000     4.324000000     1.137000000
O     4.733000000     4.746000000     0.234000000
C     4.235000000     3.523000000     2.145000000
H     5.286000000     3.288000000     2.290000000
C     3.376000000     2.986000000     3.045000000
O     3.910000000     2.027000000     3.925000000
C     3.305000000     1.717000000     5.072000000
C     3.027000000     0.371000000     5.353000000
H     3.261000000    -0.478000000     4.715000000
C     2.931000000     2.762000000     5.964000000
H     2.959000000     3.782000000     5.587000000
C     2.241000000     2.364000000     7.111000000
H     1.848000000     3.130000000     7.776000000
C     2.004000000     1.066000000     7.387000000
H     1.459000000     0.841000000     8.300000000
C     2.421000000     0.039000000     6.546000000
O     2.094000000    -1.307000000     6.852000000
C     1.218000000    -2.035000000     6.092000000
C     1.566000000    -3.321000000     5.690000000
H     2.523000000    -3.738000000     5.992000000
C     0.827000000    -3.983000000     4.740000000
O     1.341000000    -5.145000000     4.233000000
C     0.585000000    -5.991000000     3.403000000
C     0.965000000    -6.042000000     2.071000000
H     1.767000000    -5.429000000     1.668000000
C    -0.462000000    -6.926000000     3.825000000
H    -0.801000000    -6.945000000     4.857000000
C    -1.119000000    -7.827000000     2.979000000
H    -1.902000000    -8.428000000     3.435000000
C    -0.667000000    -7.815000000     1.663000000
H    -1.234000000    -8.379000000     0.927000000
C     0.253000000    -6.868000000     1.207000000
O     0.710000000    -6.954000000    -0.130000000
C     0.235000000    -6.096000000    -1.102000000
C     1.041000000    -6.083000000    -2.286000000
H     1.906000000    -6.729000000    -2.405000000
C     0.711000000    -5.187000000    -3.326000000
O     1.491000000    -5.175000000    -4.455000000
C     1.922000000    -4.080000000    -5.168000000
C     2.456000000    -3.023000000    -4.489000000
H     2.662000000    -3.032000000    -3.422000000
C     1.725000000    -4.027000000    -6.574000000
H     1.414000000    -4.896000000    -7.147000000
C     2.168000000    -2.878000000    -7.225000000
H     2.062000000    -2.906000000    -8.307000000
C     2.802000000    -1.830000000    -6.520000000
H     3.234000000    -0.951000000    -6.992000000
C     2.945000000    -1.925000000    -5.148000000
O     3.575000000    -0.892000000    -4.465000000
C     3.039000000     0.384000000    -4.301000000
C     3.900000000     1.446000000    -4.526000000
H     4.937000000     1.235000000    -4.776000000
C     3.396000000     2.690000000    -4.361000000
O     4.352000000     3.718000000    -4.371000000
C     4.478000000     4.647000000    -3.396000000
C     4.705000000     5.937000000    -3.722000000
H     4.679000000     6.310000000    -4.743000000
C     4.802000000     6.876000000    -2.709000000
H     4.798000000     7.939000000    -2.938000000
C     4.856000000     6.472000000    -1.373000000
H     4.979000000     7.194000000    -0.570000000
C     4.507000000     5.161000000    -1.050000000
C     4.350000000     4.234000000    -2.061000000
H     4.243000000     3.184000000    -1.799000000
C     0.707000000    -1.433000000     0.617000000
H     0.657000000    -2.416000000     1.079000000
C    -0.436000000    -0.636000000     0.436000000
H    -1.417000000    -1.047000000     0.661000000
C    -0.313000000     0.655000000    -0.175000000
H    -1.206000000     1.298000000    -0.508000000
C     0.957000000     1.118000000    -0.455000000
H     1.058000000     2.134000000    -0.828000000
C     2.098000000     0.409000000    -0.232000000
H     3.031000000     0.915000000    -0.466000000
C     1.972000000    -0.921000000     0.326000000
C     3.224000000    -1.682000000     0.506000000
O     4.363000000    -1.184000000     0.240000000
O     3.168000000    -2.865000000     0.853000000
O     3.376000000    -8.402000000     1.445000000
H     4.053000000    -7.791000000     1.735000000
H     2.834000000    -7.891000000     0.844000000
O     5.771000000    -4.608000000    -2.631000000
H     5.444000000    -5.291000000    -2.045000000
H     6.318000000    -4.055000000    -2.073000000
O     4.578000000    -7.040000000    -1.388000000
H     5.002000000    -7.747000000    -0.901000000
H     4.536000000    -7.361000000    -2.289000000
O     6.149000000    -1.521000000     7.184000000
H     6.296000000    -1.692000000     6.254000000
H     5.817000000    -2.349000000     7.531000000
O     8.336000000    -1.568000000     0.277000000
H     8.756000000    -2.310000000     0.712000000
H     7.531000000    -1.932000000    -0.092000000
O     4.391000000    -5.372000000     5.750000000
H     4.257000000    -5.476000000     4.808000000
H     3.953000000    -6.128000000     6.139000000
O     9.257000000    -3.964000000     1.326000000
H    10.120000000    -4.373000000     1.266000000
H     8.942000000    -4.195000000     2.200000000
O     8.925000000    -2.432000000     5.305000000
H     8.622000000    -3.142000000     5.871000000
H     8.138000000    -2.140000000     4.844000000
O     6.202000000    -1.609000000     4.436000000
H     6.635000000    -1.221000000     3.676000000
H     5.537000000    -2.188000000     4.063000000
O     7.703000000     2.218000000     2.337000000
H     8.524000000     1.732000000     2.417000000
H     7.080000000     1.580000000     1.988000000
O     6.060000000     0.184000000    -1.339000000
H     5.396000000    -0.154000000    -0.738000000
H     5.837000000    -0.205000000    -2.185000000
O     8.595000000    -4.669000000    -1.614000000
H     8.871000000    -3.949000000    -2.181000000
H     8.487000000    -4.267000000    -0.752000000
O     4.228000000    -3.058000000     3.374000000
H     4.167000000    -2.861000000     2.439000000
H     3.323000000    -3.030000000     3.684000000
O     4.391000000    -5.118000000     0.839000000
H     3.865000000    -4.321000000     0.789000000
H     4.029000000    -5.687000000     0.159000000
O     6.544000000    -0.300000000     1.857000000
H     5.688000000    -0.474000000     1.466000000
H     7.172000000    -0.594000000     1.197000000
O     7.813000000     2.321000000    -2.339000000
H     7.631000000     2.802000000    -1.532000000
H     7.418000000     1.460000000    -2.199000000
O     5.770000000    -4.277000000    -5.444000000
H     6.245000000    -3.446000000    -5.430000000
H     5.885000000    -4.633000000    -4.563000000
O     4.915000000    -6.539000000     2.930000000
H     4.790000000    -6.033000000     2.127000000
H     5.659000000    -7.110000000     2.740000000
O     5.994000000    -3.193000000    -0.257000000
H     5.377000000    -2.465000000    -0.177000000
H     5.611000000    -3.891000000     0.275000000
