215
-1487.52536
C    -0.909000000    -3.340000000     4.537000000
H    -1.671000000    -3.770000000     3.892000000
C    -0.888000000    -1.933000000     4.712000000
C     0.089000000    -1.352000000     5.496000000
H     0.195000000    -0.272000000     5.429000000
C    -1.923000000    -1.106000000     3.899000000
O    -3.211000000    -1.859000000     3.635000000
H    -1.513000000    -0.999000000     2.884000000
O    -2.277000000     0.169000000     4.437000000
C    -2.446000000     1.290000000     3.693000000
C    -1.370000000     2.209000000     3.693000000
H    -0.479000000     1.921000000     4.245000000
C    -1.446000000     3.324000000     2.913000000
O    -0.345000000     4.123000000     2.797000000
C    -2.636000000     3.613000000     2.207000000
C    -2.769000000     4.822000000     1.261000000
H    -3.827000000     5.070000000     1.151000000
C    -2.137000000     4.580000000    -0.134000000
C    -2.949000000     4.112000000    -1.198000000
H    -4.016000000     4.124000000    -0.987000000
H    -2.363000000     5.741000000     1.687000000
C    -3.746000000     2.783000000     2.332000000
H    -4.651000000     2.983000000     1.764000000
C    -3.656000000     1.591000000     3.048000000
C    -4.817000000     0.641000000     2.988000000
H    -5.748000000     1.122000000     2.678000000
H    -4.921000000     0.201000000     3.982000000
C    -4.527000000    -0.582000000     2.022000000
C    -5.043000000    -0.433000000     0.713000000
H    -5.704000000     0.361000000     0.375000000
C    -3.768000000    -1.678000000     2.358000000
C    -3.380000000    -2.576000000     1.371000000
H    -2.716000000    -3.409000000     1.588000000
C    -3.893000000    -2.449000000     0.070000000
O    -3.451000000    -3.367000000    -0.879000000
C    -2.355000000    -2.967000000    -1.714000000
C    -1.208000000    -3.930000000    -1.865000000
C    -0.430000000    -3.994000000    -3.014000000
H    -0.684000000    -3.399000000    -3.887000000
C    -0.656000000    -4.449000000    -0.643000000
H    -1.224000000    -4.390000000     0.282000000
O    -2.867000000    -2.476000000    -2.968000000
H    -1.860000000    -2.105000000    -1.244000000
C    -4.725000000    -1.391000000    -0.231000000
C    -5.191000000    -1.127000000    -1.668000000
H    -6.105000000    -0.530000000    -1.693000000
H    -5.522000000    -2.068000000    -2.111000000
C    -4.129000000    -0.449000000    -2.534000000
C    -4.259000000     0.946000000    -2.665000000
H    -4.993000000     1.446000000    -2.037000000
C    -3.079000000    -1.090000000    -3.099000000
C    -2.072000000    -0.424000000    -3.785000000
H    -1.343000000    -1.048000000    -4.296000000
C    -2.248000000     0.937000000    -3.945000000
O    -1.268000000     1.466000000    -4.710000000
C    -0.144000000     2.062000000    -4.053000000
C     1.246000000     1.650000000    -4.534000000
C     1.393000000     0.603000000    -5.421000000
H     0.592000000    -0.016000000    -5.817000000
C     2.389000000     2.299000000    -4.083000000
H     2.194000000     3.087000000    -3.360000000
O    -0.410000000     3.468000000    -3.871000000
H    -0.088000000     1.564000000    -3.075000000
C    -3.292000000     1.670000000    -3.361000000
C    -3.341000000     3.155000000    -3.481000000
H    -4.392000000     3.385000000    -3.297000000
H    -3.088000000     3.420000000    -4.510000000
C    -2.442000000     3.750000000    -2.482000000
C    -1.036000000     3.863000000    -2.632000000
C    -0.233000000     4.375000000    -1.581000000
H     0.841000000     4.429000000    -1.737000000
C    -0.793000000     4.683000000    -0.377000000
O     0.098000000     4.960000000     0.642000000
C     0.381000000     3.884000000     1.586000000
H    -0.096000000     2.984000000     1.170000000
C     1.873000000     3.734000000     1.818000000
C     2.286000000     2.787000000     2.768000000
H     1.636000000     2.313000000     3.499000000
C     2.894000000     4.330000000     1.057000000
H     2.659000000     5.109000000     0.337000000
C     4.187000000     3.926000000     1.140000000
O     5.182000000     4.543000000     0.403000000
C     4.549000000     3.129000000     2.196000000
H     5.607000000     2.933000000     2.350000000
C     3.597000000     2.593000000     3.049000000
O     4.114000000     1.748000000     4.022000000
C     3.360000000     1.411000000     5.177000000
C     3.049000000     0.073000000     5.384000000
H     3.231000000    -0.669000000     4.611000000
C     3.208000000     2.312000000     6.201000000
H     3.632000000     3.304000000     6.066000000
C     2.499000000     1.971000000     7.362000000
H     2.207000000     2.763000000     8.047000000
C     2.186000000     0.632000000     7.601000000
H     1.677000000     0.277000000     8.495000000
C     2.491000000    -0.320000000     6.563000000
O     2.122000000    -1.595000000     6.788000000
C     1.055000000    -2.134000000     6.138000000
C     1.000000000    -3.527000000     6.087000000
H     1.911000000    -4.048000000     6.369000000
C     0.003000000    -4.090000000     5.325000000
O     0.188000000    -5.472000000     5.156000000
C    -0.017000000    -6.144000000     3.960000000
C     0.502000000    -5.488000000     2.864000000
H     1.018000000    -4.531000000     2.874000000
C    -0.747000000    -7.343000000     3.855000000
H    -1.070000000    -7.827000000     4.773000000
C    -0.944000000    -7.921000000     2.591000000
H    -1.532000000    -8.831000000     2.510000000
C    -0.405000000    -7.280000000     1.504000000
H    -0.586000000    -7.849000000     0.596000000
C     0.347000000    -6.107000000     1.644000000
O     1.105000000    -5.729000000     0.513000000
C     0.497000000    -5.257000000    -0.670000000
C     1.304000000    -5.231000000    -1.764000000
H     2.260000000    -5.740000000    -1.855000000
C     0.785000000    -4.667000000    -2.945000000
O     1.538000000    -4.707000000    -4.093000000
C     1.425000000    -3.941000000    -5.210000000
C     2.156000000    -2.777000000    -5.262000000
H     2.767000000    -2.375000000    -4.457000000
C     0.785000000    -4.475000000    -6.331000000
H     0.278000000    -5.437000000    -6.316000000
C     0.746000000    -3.738000000    -7.503000000
H     0.281000000    -4.141000000    -8.399000000
C     1.472000000    -2.560000000    -7.642000000
H     1.498000000    -2.107000000    -8.629000000
C     2.172000000    -2.130000000    -6.521000000
O     2.881000000    -0.920000000    -6.649000000
C     2.707000000     0.157000000    -5.804000000
C     3.812000000     0.791000000    -5.319000000
H     4.811000000     0.492000000    -5.625000000
C     3.702000000     1.808000000    -4.344000000
O     4.843000000     2.240000000    -3.746000000
C     4.952000000     3.408000000    -3.099000000
C     5.234000000     4.621000000    -3.805000000
H     5.423000000     4.554000000    -4.873000000
C     5.387000000     5.799000000    -3.093000000
H     5.747000000     6.710000000    -3.564000000
C     5.459000000     5.723000000    -1.684000000
H     5.646000000     6.585000000    -1.050000000
C     5.189000000     4.549000000    -0.998000000
C     4.879000000     3.401000000    -1.687000000
H     4.578000000     2.450000000    -1.255000000
C     0.612000000    -1.381000000     1.439000000
H     0.434000000    -2.383000000     1.822000000
C    -0.292000000    -0.526000000     0.833000000
H    -1.333000000    -0.836000000     0.806000000
C     0.107000000     0.649000000     0.177000000
H    -0.591000000     1.323000000    -0.286000000
C     1.415000000     1.004000000     0.133000000
H     1.659000000     1.933000000    -0.377000000
C     2.389000000     0.190000000     0.776000000
H     3.396000000     0.578000000     0.653000000
C     1.987000000    -1.034000000     1.378000000
C     3.100000000    -1.977000000     1.828000000
O     4.265000000    -1.722000000     1.598000000
O     2.783000000    -2.961000000     2.471000000
O     2.966000000    -8.578000000     2.205000000
H     3.151000000    -8.112000000     1.389000000
H     2.955000000    -7.893000000     2.874000000
O     5.647000000    -5.450000000    -1.189000000
H     6.212000000    -5.903000000    -1.814000000
H     5.111000000    -4.868000000    -1.728000000
O     6.206000000    -6.345000000     2.717000000
H     5.263000000    -6.187000000     2.670000000
H     6.602000000    -5.514000000     2.456000000
O     8.637000000    -0.847000000     0.347000000
H     7.861000000    -1.388000000     0.492000000
H     9.348000000    -1.331000000     0.766000000
O     4.576000000    -3.103000000     7.194000000
H     4.374000000    -3.319000000     6.284000000
H     4.236000000    -2.216000000     7.312000000
O     2.940000000    -6.827000000     4.460000000
H     3.389000000    -6.176000000     3.920000000
H     2.909000000    -6.435000000     5.332000000
O     6.197000000     0.430000000     6.914000000
H     6.345000000     1.372000000     7.003000000
H     5.904000000     0.319000000     6.010000000
O     4.302000000    -3.220000000    -2.623000000
H     4.306000000    -2.542000000    -1.947000000
H     4.952000000    -2.926000000    -3.261000000
O     8.285000000     1.187000000     2.446000000
H     9.206000000     1.050000000     2.666000000
H     7.869000000     0.342000000     2.617000000
O     5.132000000    -1.383000000    -0.867000000
H     5.178000000    -0.430000000    -0.948000000
H     4.833000000    -1.533000000     0.029000000
O     8.882000000    -4.306000000     1.371000000
H     8.913000000    -5.067000000     0.791000000
H     7.972000000    -4.012000000     1.332000000
O     4.426000000    -3.180000000     4.602000000
H     3.690000000    -2.958000000     4.032000000
H     5.144000000    -3.376000000     4.000000000
O     3.753000000    -5.384000000     2.224000000
H     3.492000000    -4.503000000     2.494000000
H     3.411000000    -5.474000000     1.335000000
O     6.520000000    -1.007000000     2.979000000
H     6.823000000    -1.780000000     3.455000000
H     5.680000000    -1.271000000     2.602000000
O     3.964000000    -7.523000000    -0.435000000
H     4.678000000    -6.896000000    -0.545000000
H     4.396000000    -8.336000000    -0.174000000
O     6.587000000     0.978000000     0.146000000
H     6.716000000     1.238000000     1.058000000
H     7.271000000     0.329000000    -0.017000000
O     3.978000000    -6.147000000    -3.887000000
H     3.562000000    -5.402000000    -3.453000000
H     4.591000000    -5.751000000    -4.507000000
O     7.268000000    -3.353000000     4.254000000
H     8.121000000    -3.633000000     3.925000000
H     7.209000000    -3.742000000     5.127000000
O     6.233000000    -3.555000000     0.984000000
H     5.481000000    -2.964000000     1.028000000
H     5.926000000    -4.296000000     0.462000000
