215
-1477.01669
C    -0.618000000    -3.840000000     3.918000000
H    -1.492000000    -4.268000000     3.434000000
C    -0.620000000    -2.439000000     4.014000000
C     0.450000000    -1.873000000     4.661000000
H     0.542000000    -0.798000000     4.796000000
C    -1.756000000    -1.527000000     3.488000000
O    -3.048000000    -2.252000000     3.552000000
H    -1.414000000    -1.040000000     2.563000000
O    -1.909000000    -0.382000000     4.434000000
C    -2.116000000     0.799000000     3.753000000
C    -1.079000000     1.713000000     3.794000000
H    -0.150000000     1.434000000     4.284000000
C    -1.264000000     2.994000000     3.160000000
O    -0.187000000     3.808000000     3.014000000
C    -2.502000000     3.244000000     2.497000000
C    -2.748000000     4.492000000     1.741000000
H    -3.811000000     4.728000000     1.827000000
C    -2.349000000     4.478000000     0.300000000
C    -3.227000000     4.056000000    -0.692000000
H    -4.177000000     3.668000000    -0.335000000
H    -2.271000000     5.306000000     2.291000000
C    -3.607000000     2.348000000     2.544000000
H    -4.468000000     2.382000000     1.882000000
C    -3.369000000     1.111000000     3.115000000
C    -4.504000000     0.046000000     3.219000000
H    -5.514000000     0.416000000     3.032000000
H    -4.461000000    -0.434000000     4.199000000
C    -4.401000000    -0.973000000     2.130000000
C    -4.956000000    -0.772000000     0.830000000
H    -5.516000000     0.108000000     0.526000000
C    -3.773000000    -2.207000000     2.383000000
C    -3.444000000    -3.129000000     1.415000000
H    -2.781000000    -3.982000000     1.534000000
C    -3.987000000    -2.897000000     0.171000000
O    -3.469000000    -3.709000000    -0.833000000
C    -2.387000000    -3.170000000    -1.555000000
C    -1.171000000    -4.071000000    -1.703000000
C    -0.110000000    -3.548000000    -2.441000000
H    -0.298000000    -2.617000000    -2.971000000
C    -1.025000000    -5.262000000    -0.949000000
H    -1.937000000    -5.540000000    -0.428000000
O    -2.849000000    -2.551000000    -2.819000000
H    -2.097000000    -2.268000000    -0.996000000
C    -4.797000000    -1.762000000    -0.145000000
C    -5.239000000    -1.400000000    -1.543000000
H    -6.194000000    -0.875000000    -1.484000000
H    -5.448000000    -2.298000000    -2.128000000
C    -4.201000000    -0.590000000    -2.283000000
C    -4.286000000     0.798000000    -2.292000000
H    -5.170000000     1.242000000    -1.840000000
C    -3.090000000    -1.185000000    -2.891000000
C    -2.182000000    -0.366000000    -3.532000000
H    -1.320000000    -0.795000000    -4.037000000
C    -2.343000000     0.987000000    -3.614000000
O    -1.365000000     1.737000000    -4.264000000
C    -0.419000000     2.379000000    -3.494000000
C     0.906000000     2.206000000    -4.183000000
C     1.268000000     1.023000000    -4.813000000
H     0.608000000     0.160000000    -4.845000000
C     1.894000000     3.229000000    -4.068000000
H     1.667000000     4.150000000    -3.537000000
O    -0.859000000     3.776000000    -3.467000000
H    -0.273000000     1.844000000    -2.544000000
C    -3.387000000     1.598000000    -2.950000000
C    -3.642000000     3.121000000    -2.981000000
H    -4.698000000     3.376000000    -2.873000000
H    -3.361000000     3.558000000    -3.941000000
C    -2.745000000     3.778000000    -1.962000000
C    -1.445000000     4.149000000    -2.303000000
C    -0.569000000     4.578000000    -1.284000000
H     0.480000000     4.680000000    -1.550000000
C    -1.001000000     4.800000000     0.034000000
O    -0.039000000     5.072000000     0.968000000
C     0.454000000     3.873000000     1.728000000
H     0.099000000     2.984000000     1.186000000
C     1.999000000     3.830000000     1.843000000
C     2.588000000     2.785000000     2.525000000
H     1.835000000     2.155000000     2.993000000
C     2.784000000     4.581000000     0.946000000
H     2.298000000     5.320000000     0.314000000
C     4.158000000     4.365000000     0.891000000
O     4.968000000     4.965000000    -0.012000000
C     4.714000000     3.473000000     1.763000000
H     5.799000000     3.411000000     1.784000000
C     3.978000000     2.591000000     2.519000000
O     4.598000000     1.622000000     3.369000000
C     3.955000000     1.168000000     4.490000000
C     3.618000000    -0.197000000     4.502000000
H     4.072000000    -0.734000000     3.673000000
C     3.742000000     1.976000000     5.634000000
H     4.224000000     2.950000000     5.656000000
C     3.167000000     1.380000000     6.715000000
H     3.036000000     2.008000000     7.592000000
C     2.715000000     0.072000000     6.652000000
H     2.162000000    -0.377000000     7.473000000
C     2.919000000    -0.723000000     5.539000000
O     2.697000000    -2.069000000     5.538000000
C     1.560000000    -2.620000000     5.115000000
C     1.561000000    -4.021000000     5.004000000
H     2.412000000    -4.613000000     5.332000000
C     0.415000000    -4.624000000     4.475000000
O     0.354000000    -5.995000000     4.497000000
C    -0.154000000    -6.639000000     3.412000000
C     0.370000000    -6.473000000     2.153000000
H     1.205000000    -5.853000000     1.834000000
C    -1.126000000    -7.608000000     3.603000000
H    -1.513000000    -7.740000000     4.610000000
C    -1.513000000    -8.366000000     2.578000000
H    -2.233000000    -9.158000000     2.769000000
C    -1.017000000    -8.252000000     1.286000000
H    -1.375000000    -8.813000000     0.427000000
C    -0.065000000    -7.276000000     1.093000000
O     0.425000000    -7.092000000    -0.206000000
C     0.244000000    -5.919000000    -0.961000000
C     1.280000000    -5.438000000    -1.725000000
H     2.229000000    -5.965000000    -1.782000000
C     1.096000000    -4.267000000    -2.462000000
O     2.191000000    -3.810000000    -3.073000000
C     2.173000000    -3.257000000    -4.366000000
C     2.348000000    -1.923000000    -4.624000000
H     2.391000000    -1.279000000    -3.750000000
C     2.222000000    -4.173000000    -5.451000000
H     2.284000000    -5.240000000    -5.254000000
C     2.264000000    -3.638000000    -6.733000000
H     2.285000000    -4.391000000    -7.517000000
C     2.426000000    -2.318000000    -6.996000000
H     2.577000000    -1.919000000    -7.996000000
C     2.522000000    -1.439000000    -5.946000000
O     2.790000000    -0.093000000    -6.196000000
C     2.517000000     0.932000000    -5.352000000
C     3.455000000     1.964000000    -5.308000000
H     4.325000000     1.917000000    -5.958000000
C     3.115000000     3.166000000    -4.659000000
O     3.988000000     4.244000000    -4.654000000
C     4.073000000     5.114000000    -3.575000000
C     3.739000000     6.419000000    -3.786000000
H     3.495000000     6.763000000    -4.787000000
C     3.814000000     7.304000000    -2.690000000
H     3.625000000     8.369000000    -2.790000000
C     4.171000000     6.826000000    -1.414000000
H     4.186000000     7.554000000    -0.608000000
C     4.512000000     5.511000000    -1.222000000
C     4.382000000     4.616000000    -2.330000000
H     4.568000000     3.550000000    -2.234000000
C     1.301000000    -1.828000000     0.840000000
H     1.195000000    -2.696000000     1.486000000
C     0.202000000    -1.043000000     0.390000000
H    -0.823000000    -1.298000000     0.647000000
C     0.375000000     0.067000000    -0.435000000
H    -0.422000000     0.702000000    -0.764000000
C     1.613000000     0.386000000    -0.805000000
H     1.781000000     1.264000000    -1.423000000
C     2.717000000    -0.283000000    -0.347000000
H     3.699000000     0.042000000    -0.681000000
C     2.572000000    -1.464000000     0.376000000
C     3.851000000    -2.127000000     0.910000000
O     4.926000000    -1.949000000     0.360000000
O     3.797000000    -3.051000000     1.728000000
O     3.116000000    -8.534000000     1.592000000
H     3.623000000    -8.890000000     0.863000000
H     3.057000000    -7.596000000     1.408000000
O     5.309000000    -3.879000000    -3.240000000
H     4.748000000    -3.400000000    -3.849000000
H     5.760000000    -3.197000000    -2.742000000
O     5.762000000    -7.606000000    -0.021000000
H     6.710000000    -7.701000000     0.071000000
H     5.636000000    -7.320000000    -0.926000000
O     7.509000000    -5.407000000     2.343000000
H     7.445000000    -6.314000000     2.043000000
H     6.865000000    -5.343000000     3.049000000
O     5.087000000    -2.690000000     7.062000000
H     5.230000000    -3.530000000     6.626000000
H     4.337000000    -2.308000000     6.607000000
O     8.603000000    -1.490000000    -0.561000000
H     8.809000000    -2.386000000    -0.294000000
H     9.141000000    -1.342000000    -1.338000000
O     6.307000000     0.170000000     6.328000000
H     6.495000000    -0.408000000     5.589000000
H     5.416000000    -0.060000000     6.592000000
O     9.993000000    -1.395000000     2.903000000
H    10.174000000    -2.262000000     2.542000000
H     9.165000000    -1.498000000     3.372000000
O     6.918000000    -1.442000000     4.179000000
H     6.722000000    -1.011000000     3.347000000
H     6.386000000    -2.238000000     4.168000000
O     8.009000000     2.023000000     2.396000000
H     8.860000000     1.726000000     2.074000000
H     7.399000000     1.333000000     2.133000000
O     6.275000000    -1.416000000    -2.048000000
H     5.748000000    -1.692000000    -1.298000000
H     7.091000000    -1.097000000    -1.664000000
O     8.212000000    -4.826000000    -2.277000000
H     8.231000000    -4.044000000    -2.828000000
H     7.675000000    -4.576000000    -1.526000000
O     5.220000000    -3.366000000     3.805000000
H     4.754000000    -3.170000000     2.993000000
H     4.629000000    -3.947000000     4.286000000
O     4.215000000    -5.878000000     1.750000000
H     3.765000000    -5.059000000     1.955000000
H     4.648000000    -5.710000000     0.913000000
O     6.817000000    -0.572000000     1.493000000
H     6.045000000    -1.078000000     1.241000000
H     7.410000000    -0.650000000     0.746000000
O     6.649000000     2.123000000    -0.218000000
H     7.091000000     2.461000000     0.561000000
H     6.140000000     1.377000000     0.100000000
O     5.454000000    -6.521000000    -2.613000000
H     5.222000000    -5.603000000    -2.757000000
H     6.410000000    -6.521000000    -2.567000000
O     5.871000000    -7.659000000     3.390000000
H     5.220000000    -7.300000000     2.787000000
H     6.043000000    -8.541000000     3.059000000
O     7.208000000    -3.786000000     0.074000000
H     6.390000000    -3.366000000     0.340000000
H     7.527000000    -4.214000000     0.868000000
