215
-1444.77635
C     0.114000000    -3.980000000     4.220000000
H    -0.830000000    -4.432000000     3.925000000
C     0.089000000    -2.587000000     4.569000000
C     1.300000000    -2.017000000     4.846000000
H     1.372000000    -0.933000000     4.888000000
C    -1.014000000    -1.642000000     4.028000000
O    -2.295000000    -2.341000000     4.012000000
H    -0.775000000    -1.307000000     3.008000000
O    -1.265000000    -0.467000000     4.836000000
C    -1.482000000     0.790000000     4.148000000
C    -0.436000000     1.673000000     3.886000000
H     0.514000000     1.306000000     4.265000000
C    -0.697000000     2.877000000     3.360000000
O     0.445000000     3.567000000     3.119000000
C    -1.970000000     3.288000000     3.095000000
C    -2.271000000     4.617000000     2.404000000
H    -3.337000000     4.803000000     2.552000000
C    -1.992000000     4.682000000     0.912000000
C    -2.944000000     4.338000000     0.010000000
H    -3.978000000     4.405000000     0.336000000
H    -1.629000000     5.361000000     2.881000000
C    -3.052000000     2.418000000     3.370000000
H    -4.056000000     2.820000000     3.261000000
C    -2.793000000     1.136000000     3.846000000
C    -3.849000000     0.119000000     4.020000000
H    -4.808000000     0.641000000     4.044000000
H    -3.644000000    -0.310000000     5.003000000
C    -3.989000000    -0.965000000     2.928000000
C    -4.710000000    -0.696000000     1.793000000
H    -5.271000000     0.234000000     1.756000000
C    -3.213000000    -2.160000000     3.004000000
C    -3.200000000    -3.065000000     1.914000000
H    -2.615000000    -3.980000000     1.964000000
C    -3.884000000    -2.684000000     0.781000000
O    -3.653000000    -3.428000000    -0.366000000
C    -2.765000000    -2.889000000    -1.398000000
C    -1.816000000    -3.958000000    -1.944000000
C    -1.399000000    -3.986000000    -3.275000000
H    -1.903000000    -3.349000000    -3.997000000
C    -1.350000000    -5.000000000    -1.123000000
H    -1.607000000    -4.993000000    -0.067000000
O    -3.557000000    -2.241000000    -2.521000000
H    -2.103000000    -2.120000000    -0.972000000
C    -4.670000000    -1.521000000     0.667000000
C    -5.469000000    -1.170000000    -0.596000000
H    -6.299000000    -0.568000000    -0.220000000
H    -5.925000000    -2.031000000    -1.089000000
C    -4.588000000    -0.316000000    -1.551000000
C    -4.628000000     1.101000000    -1.550000000
H    -5.235000000     1.619000000    -0.812000000
C    -3.795000000    -0.877000000    -2.531000000
C    -2.960000000    -0.195000000    -3.398000000
H    -2.271000000    -0.729000000    -4.047000000
C    -2.846000000     1.203000000    -3.267000000
O    -1.870000000     1.939000000    -3.909000000
C    -0.731000000     2.429000000    -3.212000000
C     0.528000000     2.068000000    -4.080000000
C     0.650000000     0.805000000    -4.738000000
H    -0.013000000    -0.048000000    -4.623000000
C     1.646000000     2.902000000    -3.951000000
H     1.713000000     3.645000000    -3.161000000
O    -0.942000000     3.786000000    -3.076000000
H    -0.751000000     1.850000000    -2.277000000
C    -3.764000000     1.901000000    -2.359000000
C    -3.711000000     3.494000000    -2.270000000
H    -4.687000000     3.913000000    -2.014000000
H    -3.446000000     3.815000000    -3.280000000
C    -2.689000000     4.034000000    -1.335000000
C    -1.336000000     4.211000000    -1.799000000
C    -0.382000000     4.750000000    -0.923000000
H     0.644000000     4.948000000    -1.223000000
C    -0.661000000     4.793000000     0.444000000
O     0.444000000     4.890000000     1.207000000
C     0.928000000     3.659000000     1.764000000
H     0.572000000     2.895000000     1.056000000
C     2.468000000     3.616000000     1.652000000
C     3.213000000     2.728000000     2.373000000
H     2.761000000     2.041000000     3.084000000
C     3.165000000     4.479000000     0.715000000
H     2.539000000     5.105000000     0.083000000
C     4.517000000     4.306000000     0.512000000
O     5.211000000     5.060000000    -0.399000000
C     5.262000000     3.435000000     1.354000000
H     6.310000000     3.305000000     1.094000000
C     4.616000000     2.587000000     2.279000000
O     5.394000000     1.721000000     3.037000000
C     4.888000000     1.073000000     4.168000000
C     4.662000000    -0.315000000     4.245000000
H     4.952000000    -0.978000000     3.434000000
C     4.460000000     1.813000000     5.260000000
H     4.738000000     2.863000000     5.283000000
C     3.867000000     1.226000000     6.353000000
H     3.751000000     1.944000000     7.161000000
C     3.468000000    -0.118000000     6.373000000
H     2.950000000    -0.630000000     7.181000000
C     3.949000000    -0.922000000     5.318000000
O     3.710000000    -2.234000000     5.245000000
C     2.495000000    -2.775000000     4.953000000
C     2.478000000    -4.168000000     4.863000000
H     3.351000000    -4.795000000     5.027000000
C     1.283000000    -4.765000000     4.469000000
O     1.505000000    -5.997000000     3.929000000
C     0.564000000    -6.492000000     2.975000000
C     0.837000000    -6.208000000     1.677000000
H     1.533000000    -5.424000000     1.390000000
C    -0.472000000    -7.343000000     3.362000000
H    -0.656000000    -7.582000000     4.406000000
C    -1.247000000    -7.904000000     2.324000000
H    -2.019000000    -8.659000000     2.442000000
C    -0.950000000    -7.636000000     1.004000000
H    -1.526000000    -8.083000000     0.198000000
C     0.111000000    -6.808000000     0.665000000
O     0.502000000    -6.595000000    -0.673000000
C    -0.358000000    -5.862000000    -1.543000000
C     0.089000000    -5.773000000    -2.853000000
H     0.915000000    -6.409000000    -3.160000000
C    -0.431000000    -4.895000000    -3.755000000
O     0.071000000    -4.889000000    -5.031000000
C     0.027000000    -3.742000000    -5.817000000
C     0.993000000    -2.766000000    -5.579000000
H     1.635000000    -2.867000000    -4.707000000
C    -0.923000000    -3.577000000    -6.825000000
H    -1.576000000    -4.389000000    -7.134000000
C    -0.783000000    -2.470000000    -7.614000000
H    -1.475000000    -2.282000000    -8.431000000
C     0.192000000    -1.505000000    -7.366000000
H     0.189000000    -0.621000000    -7.998000000
C     1.067000000    -1.622000000    -6.338000000
O     2.037000000    -0.678000000    -6.080000000
C     1.768000000     0.503000000    -5.464000000
C     2.743000000     1.471000000    -5.585000000
H     3.636000000     1.365000000    -6.196000000
C     2.778000000     2.583000000    -4.732000000
O     3.900000000     3.260000000    -4.586000000
C     4.031000000     4.438000000    -3.798000000
C     4.011000000     5.698000000    -4.338000000
H     3.734000000     5.887000000    -5.372000000
C     4.383000000     6.769000000    -3.569000000
H     4.324000000     7.800000000    -3.907000000
C     4.712000000     6.609000000    -2.218000000
H     4.840000000     7.538000000    -1.669000000
C     4.777000000     5.323000000    -1.657000000
C     4.426000000     4.245000000    -2.496000000
H     4.437000000     3.204000000    -2.186000000
C     1.926000000    -1.587000000     0.634000000
H     2.143000000    -2.607000000     0.941000000
C     0.612000000    -1.172000000     0.455000000
H    -0.238000000    -1.840000000     0.569000000
C     0.378000000     0.107000000    -0.081000000
H    -0.602000000     0.336000000    -0.415000000
C     1.457000000     0.975000000    -0.334000000
H     1.258000000     1.970000000    -0.724000000
C     2.722000000     0.660000000     0.043000000
H     3.497000000     1.392000000    -0.170000000
C     2.991000000    -0.604000000     0.595000000
C     4.392000000    -1.065000000     0.881000000
O     5.363000000    -0.527000000     0.399000000
O     4.434000000    -2.243000000     1.323000000
O     6.320000000    -3.671000000     5.801000000
H     6.101000000    -3.593000000     4.872000000
H     5.476000000    -3.635000000     6.250000000
O     7.488000000     0.372000000     1.977000000
H     6.830000000    -0.101000000     1.468000000
H     7.005000000     1.090000000     2.386000000
O     9.431000000     0.349000000     0.399000000
H     8.770000000     0.415000000     1.089000000
H     8.946000000     0.053000000    -0.371000000
O     7.543000000     2.259000000    -1.971000000
H     7.418000000     2.759000000    -2.778000000
H     6.906000000     1.547000000    -2.030000000
O     3.719000000    -4.603000000     0.256000000
H     3.967000000    -5.088000000     1.043000000
H     3.669000000    -3.691000000     0.542000000
O     4.103000000    -6.326000000     2.480000000
H     4.468000000    -7.017000000     3.033000000
H     3.356000000    -5.991000000     2.977000000
O    10.125000000    -3.487000000     0.605000000
H     9.552000000    -3.681000000     1.346000000
H     9.541000000    -3.476000000    -0.153000000
O     6.792000000    -2.810000000    -5.170000000
H     7.019000000    -3.288000000    -4.372000000
H     6.030000000    -3.273000000    -5.518000000
O     8.506000000    -4.395000000     2.453000000
H     7.584000000    -4.340000000     2.704000000
H     8.584000000    -5.242000000     2.015000000
O     3.760000000    -4.516000000    -2.446000000
H     4.696000000    -4.363000000    -2.573000000
H     3.620000000    -4.379000000    -1.509000000
O     8.826000000    -0.627000000     5.055000000
H     8.965000000     0.314000000     4.947000000
H     8.492000000    -0.918000000     4.206000000
O     5.975000000    -0.262000000    -5.239000000
H     5.676000000    -0.003000000    -4.367000000
H     6.234000000    -1.178000000    -5.141000000
O     5.741000000    -4.122000000     2.717000000
H     5.150000000    -3.451000000     2.375000000
H     5.265000000    -4.943000000     2.596000000
O     6.415000000    -3.838000000    -2.761000000
H     6.675000000    -3.636000000    -1.862000000
H     6.570000000    -4.779000000    -2.849000000
O     8.436000000    -1.102000000    -1.798000000
H     8.546000000    -1.894000000    -2.325000000
H     7.522000000    -0.852000000    -1.929000000
O     3.579000000    -7.518000000    -0.936000000
H     4.131000000    -6.940000000    -1.463000000
H     3.373000000    -7.005000000    -0.155000000
O     3.726000000    -1.254000000    -3.390000000
H     3.291000000    -2.101000000    -3.289000000
H     3.128000000    -0.741000000    -3.934000000
O     5.739000000     0.019000000    -2.157000000
H     4.966000000    -0.333000000    -2.600000000
H     5.668000000    -0.303000000    -1.259000000
O     6.647000000    -3.273000000    -0.049000000
H     6.468000000    -3.680000000     0.799000000
H     6.362000000    -2.365000000     0.056000000
