215
-1452.70617
C     0.354000000    -3.797000000     3.737000000
H    -0.560000000    -4.105000000     3.236000000
C     0.330000000    -2.455000000     4.236000000
C     1.536000000    -1.883000000     4.616000000
H     1.688000000    -0.807000000     4.641000000
C    -0.857000000    -1.578000000     3.997000000
O    -2.122000000    -2.197000000     4.040000000
H    -0.597000000    -1.211000000     2.993000000
O    -0.806000000    -0.371000000     4.834000000
C    -1.293000000     0.872000000     4.416000000
C    -0.249000000     1.772000000     4.040000000
H     0.774000000     1.601000000     4.366000000
C    -0.520000000     2.934000000     3.383000000
O     0.523000000     3.740000000     3.052000000
C    -1.824000000     3.234000000     3.004000000
C    -2.107000000     4.627000000     2.274000000
H    -3.129000000     4.919000000     2.523000000
C    -1.918000000     4.495000000     0.765000000
C    -2.999000000     4.143000000    -0.034000000
H    -3.997000000     4.062000000     0.387000000
H    -1.513000000     5.397000000     2.770000000
C    -2.899000000     2.345000000     3.311000000
H    -3.885000000     2.545000000     2.900000000
C    -2.607000000     1.157000000     4.007000000
C    -3.761000000     0.190000000     4.223000000
H    -4.744000000     0.664000000     4.226000000
H    -3.552000000    -0.336000000     5.157000000
C    -3.642000000    -0.750000000     2.990000000
C    -4.347000000    -0.392000000     1.891000000
H    -4.766000000     0.605000000     1.787000000
C    -2.952000000    -1.992000000     3.015000000
C    -3.011000000    -2.858000000     1.960000000
H    -2.401000000    -3.759000000     1.953000000
C    -3.780000000    -2.503000000     0.818000000
O    -3.671000000    -3.254000000    -0.285000000
C    -2.810000000    -2.830000000    -1.351000000
C    -1.932000000    -3.973000000    -1.871000000
C    -1.490000000    -3.965000000    -3.158000000
H    -1.690000000    -3.094000000    -3.777000000
C    -1.571000000    -5.037000000    -1.061000000
H    -1.987000000    -5.125000000    -0.060000000
O    -3.637000000    -2.223000000    -2.356000000
H    -2.103000000    -2.059000000    -1.011000000
C    -4.523000000    -1.313000000     0.848000000
C    -5.398000000    -0.942000000    -0.321000000
H    -6.246000000    -0.356000000     0.040000000
H    -5.822000000    -1.803000000    -0.842000000
C    -4.567000000    -0.217000000    -1.381000000
C    -4.575000000     1.156000000    -1.395000000
H    -5.202000000     1.759000000    -0.743000000
C    -3.743000000    -0.876000000    -2.284000000
C    -2.965000000    -0.176000000    -3.206000000
H    -2.401000000    -0.711000000    -3.966000000
C    -3.166000000     1.186000000    -3.302000000
O    -2.288000000     1.844000000    -4.132000000
C    -1.076000000     2.366000000    -3.548000000
C     0.266000000     2.132000000    -4.272000000
C     0.521000000     0.828000000    -4.769000000
H    -0.297000000     0.112000000    -4.781000000
C     1.380000000     3.008000000    -4.335000000
H     1.248000000     4.047000000    -4.043000000
O    -1.230000000     3.797000000    -3.214000000
H    -1.045000000     1.828000000    -2.589000000
C    -3.955000000     1.889000000    -2.380000000
C    -4.028000000     3.442000000    -2.273000000
H    -4.960000000     3.915000000    -1.957000000
H    -3.971000000     3.857000000    -3.281000000
C    -2.828000000     3.959000000    -1.387000000
C    -1.508000000     4.061000000    -1.916000000
C    -0.482000000     4.369000000    -1.127000000
H     0.551000000     4.544000000    -1.418000000
C    -0.640000000     4.559000000     0.239000000
O     0.513000000     4.671000000     0.978000000
C     0.971000000     3.624000000     1.727000000
H     0.682000000     2.674000000     1.255000000
C     2.430000000     3.578000000     1.559000000
C     3.217000000     2.793000000     2.381000000
H     2.617000000     2.211000000     3.076000000
C     3.142000000     4.375000000     0.623000000
H     2.745000000     5.110000000    -0.072000000
C     4.542000000     4.189000000     0.419000000
O     5.216000000     4.762000000    -0.665000000
C     5.204000000     3.267000000     1.161000000
H     6.250000000     3.053000000     0.955000000
C     4.557000000     2.559000000     2.195000000
O     5.248000000     1.772000000     3.054000000
C     4.768000000     1.114000000     4.182000000
C     4.493000000    -0.264000000     4.177000000
H     4.758000000    -0.757000000     3.245000000
C     4.753000000     1.824000000     5.408000000
H     5.014000000     2.879000000     5.410000000
C     4.394000000     1.129000000     6.589000000
H     4.434000000     1.613000000     7.562000000
C     4.101000000    -0.257000000     6.559000000
H     3.847000000    -0.832000000     7.446000000
C     4.132000000    -0.907000000     5.345000000
O     3.903000000    -2.293000000     5.278000000
C     2.611000000    -2.749000000     4.875000000
C     2.547000000    -4.125000000     4.600000000
H     3.330000000    -4.789000000     4.956000000
C     1.433000000    -4.640000000     3.885000000
O     1.184000000    -6.010000000     3.752000000
C     0.168000000    -6.486000000     2.924000000
C     0.445000000    -6.673000000     1.588000000
H     1.428000000    -6.457000000     1.176000000
C    -1.044000000    -6.906000000     3.385000000
H    -1.195000000    -6.890000000     4.461000000
C    -2.005000000    -7.418000000     2.542000000
H    -2.916000000    -7.742000000     3.039000000
C    -1.777000000    -7.493000000     1.165000000
H    -2.570000000    -7.868000000     0.523000000
C    -0.505000000    -7.137000000     0.688000000
O    -0.200000000    -7.110000000    -0.649000000
C    -0.623000000    -6.029000000    -1.456000000
C    -0.184000000    -5.977000000    -2.778000000
H     0.623000000    -6.647000000    -3.066000000
C    -0.618000000    -5.010000000    -3.623000000
O    -0.106000000    -5.015000000    -4.909000000
C     0.063000000    -3.883000000    -5.642000000
C     0.821000000    -2.852000000    -5.091000000
H     1.447000000    -2.961000000    -4.208000000
C    -0.644000000    -3.732000000    -6.850000000
H    -1.328000000    -4.477000000    -7.249000000
C    -0.511000000    -2.570000000    -7.568000000
H    -0.985000000    -2.360000000    -8.524000000
C     0.488000000    -1.640000000    -7.172000000
H     0.685000000    -0.811000000    -7.848000000
C     1.173000000    -1.802000000    -5.949000000
O     2.103000000    -0.836000000    -5.594000000
C     1.808000000     0.498000000    -5.253000000
C     2.920000000     1.338000000    -5.151000000
H     3.869000000     0.884000000    -5.426000000
C     2.662000000     2.646000000    -4.785000000
O     3.724000000     3.501000000    -4.877000000
C     3.966000000     4.559000000    -4.008000000
C     4.191000000     5.819000000    -4.482000000
H     4.028000000     6.035000000    -5.535000000
C     4.690000000     6.801000000    -3.646000000
H     4.957000000     7.799000000    -3.985000000
C     4.872000000     6.495000000    -2.312000000
H     5.223000000     7.287000000    -1.655000000
C     4.707000000     5.167000000    -1.845000000
C     4.285000000     4.230000000    -2.744000000
H     4.350000000     3.199000000    -2.406000000
C     1.606000000    -1.264000000     0.845000000
H     1.830000000    -2.039000000     1.573000000
C     0.271000000    -0.856000000     0.529000000
H    -0.587000000    -1.458000000     0.818000000
C     0.030000000     0.246000000    -0.267000000
H    -0.928000000     0.646000000    -0.395000000
C     1.110000000     1.006000000    -0.733000000
H     0.926000000     1.841000000    -1.404000000
C     2.384000000     0.591000000    -0.494000000
H     3.169000000     1.261000000    -0.836000000
C     2.679000000    -0.527000000     0.300000000
C     4.081000000    -1.042000000     0.552000000
O     5.026000000    -0.283000000     0.544000000
O     4.387000000    -2.187000000     0.697000000
O     6.696000000    -2.663000000     5.176000000
H     6.320000000    -2.897000000     4.328000000
H     5.947000000    -2.640000000     5.772000000
O     7.294000000    -1.468000000     1.950000000
H     7.203000000    -2.286000000     2.440000000
H     6.405000000    -1.263000000     1.660000000
O     9.265000000    -0.132000000     0.747000000
H     8.549000000    -0.499000000     1.266000000
H     9.028000000    -0.327000000    -0.160000000
O     5.395000000    -4.711000000    -4.642000000
H     4.808000000    -4.185000000    -4.098000000
H     5.008000000    -4.673000000    -5.517000000
O     8.670000000     3.118000000    -1.664000000
H     8.820000000     2.531000000    -2.406000000
H     8.104000000     2.620000000    -1.075000000
O     3.465000000    -4.604000000     0.045000000
H     3.544000000    -5.117000000     0.850000000
H     3.812000000    -3.742000000     0.275000000
O     8.099000000     0.438000000     3.836000000
H     7.465000000    -0.167000000     3.451000000
H     7.617000000     1.258000000     3.937000000
O     4.600000000    -6.044000000     2.194000000
H     4.847000000    -6.720000000     1.563000000
H     4.761000000    -6.444000000     3.049000000
O     3.402000000    -6.943000000    -1.119000000
H     4.304000000    -7.260000000    -1.066000000
H     3.438000000    -6.058000000    -0.757000000
O     3.995000000    -3.211000000    -2.724000000
H     3.102000000    -3.235000000    -2.381000000
H     4.537000000    -3.534000000    -2.004000000
O     8.516000000    -4.382000000     1.167000000
H     8.870000000    -3.754000000     1.796000000
H     8.833000000    -5.232000000     1.473000000
O     1.534000000    -3.224000000    -1.506000000
H     1.985000000    -3.625000000    -0.763000000
H     0.871000000    -2.661000000    -1.108000000
O     5.983000000    -0.912000000    -5.590000000
H     5.645000000    -0.964000000    -4.696000000
H     6.819000000    -1.376000000    -5.557000000
O     5.624000000    -3.439000000     2.845000000
H     5.212000000    -2.864000000     2.200000000
H     5.371000000    -4.322000000     2.574000000
O     7.809000000    -2.312000000    -3.552000000
H     7.309000000    -1.676000000    -3.040000000
H     7.395000000    -3.153000000    -3.359000000
O     6.430000000    -6.289000000    -1.043000000
H     6.000000000    -5.502000000    -0.709000000
H     6.978000000    -5.976000000    -1.763000000
O     4.485000000    -0.627000000    -3.296000000
H     3.630000000    -0.200000000    -3.354000000
H     4.282000000    -1.560000000    -3.219000000
O     6.735000000     0.059000000    -1.439000000
H     6.016000000    -0.097000000    -2.051000000
H     6.308000000     0.163000000    -0.589000000
O     6.588000000    -3.161000000    -0.719000000
H     7.241000000    -3.392000000    -0.059000000
H     6.049000000    -2.491000000    -0.298000000
