215
-1479.15429
C     2.212000000     3.417000000    -3.613000000
H     2.033000000     2.571000000    -4.271000000
C     2.900000000     3.234000000    -2.490000000
C     3.093000000     4.406000000    -1.649000000
H     3.672000000     4.201000000    -0.752000000
C     3.448000000     1.840000000    -2.135000000
O     3.697000000     1.021000000    -3.331000000
H     2.617000000     1.403000000    -1.562000000
O     4.730000000     1.958000000    -1.384000000
C     4.716000000     1.180000000    -0.275000000
C     4.200000000     1.725000000     0.877000000
H     3.733000000     2.706000000     0.854000000
C     4.089000000     0.947000000     1.997000000
O     3.307000000     1.490000000     3.028000000
C     4.313000000    -0.462000000     1.956000000
C     4.241000000    -1.302000000     3.202000000
H     4.990000000    -2.096000000     3.162000000
C     2.849000000    -1.912000000     3.411000000
C     2.600000000    -3.186000000     2.878000000
H     3.407000000    -3.744000000     2.410000000
H     4.394000000    -0.665000000     4.075000000
C     4.836000000    -0.968000000     0.803000000
H     5.135000000    -2.010000000     0.725000000
C     5.009000000    -0.187000000    -0.360000000
C     5.334000000    -0.887000000    -1.671000000
H     5.937000000    -1.794000000    -1.600000000
H     5.929000000    -0.189000000    -2.264000000
C     4.084000000    -1.300000000    -2.434000000
C     3.630000000    -2.621000000    -2.334000000
H     4.175000000    -3.304000000    -1.687000000
C     3.365000000    -0.299000000    -3.154000000
C     2.246000000    -0.765000000    -3.795000000
H     1.795000000    -0.029000000    -4.456000000
C     1.733000000    -2.022000000    -3.654000000
O     0.500000000    -2.314000000    -4.156000000
C    -0.691000000    -2.359000000    -3.243000000
C    -1.882000000    -1.642000000    -3.797000000
C    -3.137000000    -1.949000000    -3.366000000
H    -3.297000000    -2.788000000    -2.694000000
C    -1.668000000    -0.570000000    -4.609000000
H    -0.655000000    -0.282000000    -4.878000000
O    -1.001000000    -3.755000000    -2.892000000
H    -0.430000000    -1.900000000    -2.278000000
C     2.411000000    -2.970000000    -2.900000000
C     1.803000000    -4.400000000    -2.768000000
H     2.553000000    -5.186000000    -2.657000000
H     1.333000000    -4.489000000    -3.750000000
C     0.830000000    -4.503000000    -1.587000000
C     1.289000000    -4.865000000    -0.296000000
H     2.343000000    -5.018000000    -0.077000000
C    -0.545000000    -4.249000000    -1.686000000
C    -1.415000000    -4.522000000    -0.614000000
H    -2.475000000    -4.344000000    -0.771000000
C    -0.892000000    -4.872000000     0.623000000
O    -1.788000000    -4.786000000     1.684000000
C    -1.824000000    -3.577000000     2.371000000
C    -3.262000000    -3.256000000     2.733000000
C    -4.297000000    -3.503000000     1.814000000
H    -4.048000000    -3.900000000     0.833000000
C    -3.639000000    -2.604000000     3.925000000
H    -2.848000000    -2.382000000     4.637000000
O    -0.983000000    -3.569000000     3.588000000
H    -1.445000000    -2.784000000     1.709000000
C     0.487000000    -5.027000000     0.783000000
C     1.079000000    -5.115000000     2.167000000
H     1.991000000    -5.715000000     2.123000000
H     0.376000000    -5.740000000     2.722000000
C     1.338000000    -3.759000000     2.885000000
C     0.244000000    -3.064000000     3.461000000
C     0.437000000    -1.811000000     3.970000000
H    -0.375000000    -1.159000000     4.281000000
C     1.750000000    -1.236000000     3.893000000
O     1.911000000     0.071000000     4.260000000
C     1.966000000     1.040000000     3.144000000
H     1.718000000     0.568000000     2.182000000
C     0.927000000     2.125000000     3.419000000
C     1.339000000     3.498000000     3.167000000
H     2.365000000     3.700000000     2.872000000
C    -0.401000000     1.978000000     3.791000000
H    -0.829000000     0.979000000     3.781000000
C    -1.248000000     3.064000000     4.042000000
O    -2.597000000     2.800000000     4.321000000
C    -0.852000000     4.347000000     3.781000000
H    -1.500000000     5.209000000     3.915000000
C     0.470000000     4.560000000     3.394000000
O     0.917000000     5.866000000     3.267000000
C     1.866000000     6.376000000     2.417000000
C     1.983000000     6.033000000     1.028000000
H     1.274000000     5.368000000     0.541000000
C     2.732000000     7.342000000     2.938000000
H     2.679000000     7.506000000     4.011000000
C     3.711000000     7.969000000     2.115000000
H     4.407000000     8.646000000     2.604000000
C     3.749000000     7.728000000     0.722000000
H     4.432000000     8.347000000     0.147000000
C     2.842000000     6.735000000     0.184000000
O     2.785000000     6.746000000    -1.161000000
C     2.608000000     5.675000000    -1.982000000
C     1.797000000     5.805000000    -3.178000000
H     1.389000000     6.760000000    -3.497000000
C     1.578000000     4.680000000    -3.913000000
O     0.756000000     4.846000000    -4.986000000
C     0.335000000     3.749000000    -5.709000000
C    -0.828000000     3.136000000    -5.364000000
H    -1.569000000     3.737000000    -4.842000000
C     1.153000000     3.214000000    -6.727000000
H     2.079000000     3.684000000    -7.047000000
C     0.792000000     2.060000000    -7.354000000
H     1.358000000     1.720000000    -8.217000000
C    -0.414000000     1.345000000    -6.947000000
H    -0.819000000     0.468000000    -7.446000000
C    -1.233000000     1.963000000    -5.985000000
O    -2.444000000     1.490000000    -5.630000000
C    -2.685000000     0.287000000    -5.017000000
C    -3.987000000    -0.010000000    -4.617000000
H    -4.786000000     0.681000000    -4.873000000
C    -4.197000000    -1.090000000    -3.731000000
O    -5.505000000    -1.351000000    -3.258000000
C    -5.816000000    -2.391000000    -2.434000000
C    -6.109000000    -2.169000000    -1.152000000
H    -6.142000000    -1.142000000    -0.796000000
C    -5.719000000    -3.745000000    -2.924000000
H    -5.420000000    -3.970000000    -3.944000000
C    -6.095000000    -4.813000000    -2.110000000
H    -5.896000000    -5.801000000    -2.516000000
C    -6.303000000    -4.599000000    -0.769000000
H    -6.475000000    -5.424000000    -0.083000000
C    -6.237000000    -3.280000000    -0.255000000
O    -6.597000000    -3.137000000     1.085000000
C    -5.613000000    -3.161000000     2.026000000
C    -5.889000000    -2.348000000     3.155000000
H    -6.874000000    -1.888000000     3.137000000
C    -4.888000000    -2.080000000     4.129000000
O    -5.160000000    -1.280000000     5.201000000
C    -4.285000000    -0.253000000     5.556000000
C    -3.922000000    -0.158000000     6.899000000
H    -4.320000000    -0.898000000     7.588000000
C    -2.964000000     0.708000000     7.294000000
H    -2.679000000     0.751000000     8.342000000
C    -2.505000000     1.721000000     6.410000000
H    -1.817000000     2.505000000     6.716000000
C    -2.946000000     1.714000000     5.091000000
C    -3.818000000     0.711000000     4.588000000
H    -4.120000000     0.514000000     3.563000000
C    -2.351000000     0.984000000    -0.283000000
H    -3.411000000     1.215000000    -0.351000000
C    -1.976000000    -0.337000000    -0.384000000
H    -2.803000000    -1.031000000    -0.512000000
C    -0.688000000    -0.745000000    -0.220000000
H    -0.526000000    -1.888000000    -0.041000000
C     0.301000000     0.253000000    -0.020000000
H     1.326000000    -0.078000000     0.128000000
C    -0.059000000     1.586000000    -0.050000000
H     0.722000000     2.324000000     0.110000000
C    -1.426000000     1.991000000    -0.135000000
C    -1.827000000     3.399000000    -0.178000000
O    -1.089000000     4.263000000     0.254000000
O    -2.972000000     3.672000000    -0.469000000
O    -1.326000000     5.373000000    -2.543000000
H    -0.373000000     5.305000000    -2.481000000
H    -1.637000000     5.198000000    -1.654000000
O    -0.850000000     8.719000000    -2.140000000
H    -1.565000000     8.102000000    -2.296000000
H    -1.271000000     9.579000000    -2.147000000
O    -4.463000000     5.876000000     4.205000000
H    -4.419000000     6.663000000     3.662000000
H    -3.834000000     5.274000000     3.805000000
O    -3.187000000     7.349000000    -2.122000000
H    -4.104000000     7.276000000    -2.386000000
H    -2.725000000     6.732000000    -2.690000000
O    -0.858000000     7.320000000    -5.183000000
H    -0.148000000     7.960000000    -5.121000000
H    -0.471000000     6.503000000    -4.868000000
O    -5.624000000     6.801000000    -2.859000000
H    -5.887000000     6.319000000    -3.643000000
H    -5.340000000     6.123000000    -2.246000000
O    -3.512000000     5.468000000     1.519000000
H    -3.295000000     4.745000000     0.931000000
H    -2.764000000     6.062000000     1.454000000
O    -1.164000000     7.068000000     1.202000000
H    -0.730000000     7.730000000     0.664000000
H    -0.911000000     6.234000000     0.805000000
O    -6.569000000     2.068000000    -0.978000000
H    -5.654000000     1.917000000    -1.213000000
H    -7.068000000     1.571000000    -1.627000000
O    -6.143000000     4.626000000    -4.633000000
H    -5.518000000     4.066000000    -4.173000000
H    -5.836000000     4.634000000    -5.539000000
O    -4.885000000     2.859000000     2.733000000
H    -4.942000000     3.671000000     2.231000000
H    -4.040000000     2.911000000     3.179000000
O    -6.101000000     0.740000000     1.759000000
H    -6.451000000     1.325000000     1.087000000
H    -5.459000000     1.271000000     2.229000000
O    -7.487000000     4.140000000     0.855000000
H    -7.466000000     3.320000000     0.362000000
H    -7.241000000     3.891000000     1.746000000
O    -5.687000000     7.272000000     0.858000000
H    -5.977000000     7.046000000    -0.025000000
H    -4.866000000     6.793000000     0.971000000
O    -5.228000000     4.954000000    -0.735000000
H    -6.004000000     4.613000000    -0.292000000
H    -4.508000000     4.415000000    -0.407000000
O    -3.355000000     8.267000000     2.979000000
H    -2.587000000     8.290000000     2.408000000
H    -2.996000000     8.139000000     3.858000000
O    -0.407000000     8.102000000     3.754000000
H    -0.519000000     7.385000000     3.131000000
H     0.047000000     8.783000000     3.257000000
O    -4.292000000     3.147000000    -3.014000000
H    -4.233000000     3.705000000    -2.238000000
H    -3.416000000     2.774000000    -3.108000000
O    -4.931000000     9.408000000    -0.523000000
H    -5.031000000     8.934000000     0.303000000
H    -4.324000000     8.873000000    -1.034000000
