215
-1457.67251
C    -0.874000000    -4.154000000     3.469000000
H    -1.909000000    -4.132000000     3.138000000
C    -0.251000000    -2.950000000     3.864000000
C     1.097000000    -2.865000000     4.179000000
H     1.615000000    -1.994000000     4.571000000
C    -1.069000000    -1.607000000     3.862000000
O    -2.461000000    -1.924000000     3.863000000
H    -0.924000000    -1.041000000     2.930000000
O    -0.684000000    -0.803000000     5.038000000
C    -0.582000000     0.579000000     4.645000000
C     0.685000000     1.045000000     4.342000000
H     1.581000000     0.435000000     4.256000000
C     0.860000000     2.322000000     3.806000000
O     2.141000000     2.670000000     3.472000000
C    -0.188000000     3.214000000     3.703000000
C    -0.096000000     4.634000000     3.142000000
H    -0.975000000     5.153000000     3.531000000
C    -0.120000000     4.723000000     1.615000000
C    -1.318000000     4.766000000     0.881000000
H    -2.287000000     5.013000000     1.309000000
H     0.738000000     5.179000000     3.588000000
C    -1.506000000     2.673000000     3.974000000
H    -2.448000000     3.193000000     3.818000000
C    -1.690000000     1.453000000     4.487000000
C    -3.137000000     0.762000000     4.601000000
H    -3.884000000     1.545000000     4.747000000
H    -3.236000000     0.146000000     5.497000000
C    -3.555000000     0.099000000     3.259000000
C    -4.258000000     0.875000000     2.321000000
H    -4.341000000     1.958000000     2.319000000
C    -3.332000000    -1.240000000     3.001000000
C    -3.778000000    -1.909000000     1.861000000
H    -3.499000000    -2.935000000     1.635000000
C    -4.416000000    -1.152000000     0.937000000
O    -4.543000000    -1.799000000    -0.293000000
C    -3.827000000    -1.377000000    -1.465000000
C    -3.238000000    -2.551000000    -2.272000000
C    -2.917000000    -2.431000000    -3.621000000
H    -3.214000000    -1.527000000    -4.146000000
C    -2.994000000    -3.726000000    -1.625000000
H    -3.133000000    -3.844000000    -0.553000000
O    -4.549000000    -0.361000000    -2.264000000
H    -2.884000000    -0.969000000    -1.074000000
C    -4.695000000     0.250000000     1.135000000
C    -5.513000000     1.022000000     0.070000000
H    -6.143000000     1.825000000     0.460000000
H    -6.248000000     0.357000000    -0.388000000
C    -4.588000000     1.685000000    -1.030000000
C    -4.142000000     3.004000000    -0.785000000
H    -4.368000000     3.605000000     0.093000000
C    -4.146000000     0.946000000    -2.094000000
C    -3.241000000     1.484000000    -2.956000000
H    -2.806000000     0.958000000    -3.802000000
C    -2.779000000     2.749000000    -2.720000000
O    -1.704000000     3.131000000    -3.470000000
C    -0.448000000     2.947000000    -2.944000000
C     0.564000000     2.274000000    -3.905000000
C     0.103000000     1.694000000    -5.066000000
H    -0.969000000     1.667000000    -5.241000000
C     1.935000000     2.393000000    -3.637000000
H     2.301000000     2.882000000    -2.738000000
O     0.053000000     4.220000000    -2.603000000
H    -0.566000000     2.367000000    -2.017000000
C    -3.214000000     3.578000000    -1.664000000
C    -2.536000000     4.868000000    -1.368000000
H    -3.213000000     5.524000000    -0.818000000
H    -2.375000000     5.506000000    -2.239000000
C    -1.260000000     4.626000000    -0.531000000
C    -0.095000000     4.458000000    -1.232000000
C     1.098000000     4.368000000    -0.469000000
H     2.058000000     4.216000000    -0.954000000
C     1.103000000     4.468000000     0.951000000
O     2.245000000     4.139000000     1.578000000
C     2.489000000     2.832000000     2.078000000
H     2.054000000     2.015000000     1.484000000
C     3.945000000     2.303000000     2.039000000
C     4.437000000     1.322000000     2.866000000
H     3.805000000     1.060000000     3.710000000
C     4.771000000     2.745000000     1.008000000
H     4.429000000     3.530000000     0.339000000
C     6.015000000     2.143000000     0.808000000
O     6.824000000     2.504000000    -0.242000000
C     6.468000000     1.123000000     1.683000000
H     7.433000000     0.680000000     1.452000000
C     5.646000000     0.635000000     2.659000000
O     6.129000000    -0.299000000     3.570000000
C     5.305000000    -1.022000000     4.376000000
C     4.635000000    -2.148000000     3.867000000
H     4.748000000    -2.312000000     2.798000000
C     5.305000000    -0.701000000     5.765000000
H     5.730000000     0.222000000     6.148000000
C     4.380000000    -1.367000000     6.594000000
H     4.271000000    -1.032000000     7.622000000
C     3.720000000    -2.490000000     6.095000000
H     3.066000000    -3.066000000     6.746000000
C     3.927000000    -2.914000000     4.777000000
O     3.251000000    -3.951000000     4.200000000
C     1.881000000    -3.994000000     4.056000000
C     1.307000000    -5.184000000     3.613000000
H     1.820000000    -6.134000000     3.738000000
C    -0.003000000    -5.251000000     3.238000000
O    -0.574000000    -6.430000000     2.899000000
C    -1.500000000    -6.450000000     1.870000000
C    -1.215000000    -6.009000000     0.583000000
H    -0.284000000    -5.566000000     0.237000000
C    -2.712000000    -7.052000000     2.206000000
H    -2.803000000    -7.548000000     3.169000000
C    -3.684000000    -7.241000000     1.262000000
H    -4.531000000    -7.856000000     1.554000000
C    -3.434000000    -6.828000000    -0.034000000
H    -4.161000000    -7.085000000    -0.800000000
C    -2.258000000    -6.194000000    -0.376000000
O    -2.100000000    -5.980000000    -1.722000000
C    -2.353000000    -4.777000000    -2.278000000
C    -1.973000000    -4.643000000    -3.587000000
H    -1.455000000    -5.473000000    -4.060000000
C    -2.233000000    -3.456000000    -4.236000000
O    -1.712000000    -3.438000000    -5.518000000
C    -1.648000000    -2.353000000    -6.416000000
C    -0.618000000    -1.417000000    -6.234000000
H    -0.086000000    -1.450000000    -5.287000000
C    -2.525000000    -2.239000000    -7.506000000
H    -3.221000000    -3.044000000    -7.730000000
C    -2.358000000    -1.162000000    -8.418000000
H    -3.097000000    -1.119000000    -9.214000000
C    -1.386000000    -0.221000000    -8.257000000
H    -1.299000000     0.725000000    -8.784000000
C    -0.439000000    -0.385000000    -7.190000000
O     0.528000000     0.584000000    -7.109000000
C     0.997000000     1.139000000    -5.918000000
C     2.333000000     1.171000000    -5.632000000
H     3.001000000     0.659000000    -6.321000000
C     2.850000000     1.757000000    -4.476000000
O     4.141000000     1.428000000    -4.078000000
C     5.005000000     2.293000000    -3.367000000
C     5.150000000     3.538000000    -3.942000000
H     4.662000000     3.871000000    -4.855000000
C     5.871000000     4.489000000    -3.213000000
H     5.862000000     5.516000000    -3.569000000
C     6.518000000     4.088000000    -2.003000000
H     6.948000000     4.890000000    -1.408000000
C     6.300000000     2.812000000    -1.458000000
C     5.506000000     1.882000000    -2.153000000
H     5.231000000     0.936000000    -1.692000000
C     0.401000000    -2.261000000    -0.377000000
H     0.250000000    -3.337000000    -0.346000000
C    -0.597000000    -1.399000000     0.093000000
H    -1.551000000    -1.817000000     0.404000000
C    -0.431000000    -0.031000000     0.048000000
H    -1.200000000     0.669000000     0.361000000
C     0.809000000     0.528000000    -0.306000000
H     1.055000000     1.585000000    -0.362000000
C     1.837000000    -0.351000000    -0.585000000
H     2.804000000     0.089000000    -0.813000000
C     1.670000000    -1.739000000    -0.668000000
C     2.836000000    -2.554000000    -0.991000000
O     3.947000000    -2.132000000    -0.890000000
O     2.749000000    -3.649000000    -1.444000000
O     6.359000000    -1.970000000     0.121000000
H     6.832000000    -1.388000000    -0.474000000
H     5.497000000    -2.074000000    -0.281000000
O     8.219000000    -0.525000000    -1.475000000
H     9.108000000    -0.804000000    -1.254000000
H     7.972000000    -1.078000000    -2.216000000
O     8.073000000    -5.818000000    -1.089000000
H     8.607000000    -5.233000000    -0.550000000
H     8.373000000    -6.697000000    -0.858000000
O     2.399000000    -6.351000000    -0.858000000
H     2.372000000    -5.430000000    -1.119000000
H     3.033000000    -6.379000000    -0.142000000
O     0.915000000    -7.775000000    -2.590000000
H     0.016000000    -7.958000000    -2.318000000
H     1.348000000    -7.469000000    -1.793000000
O     1.296000000    -5.465000000    -6.333000000
H     1.165000000    -6.226000000    -5.767000000
H     1.448000000    -4.740000000    -5.728000000
O     1.531000000    -3.860000000    -3.819000000
H     0.647000000    -3.815000000    -3.455000000
H     2.106000000    -3.850000000    -3.054000000
O     8.191000000    -3.247000000    -2.810000000
H     7.896000000    -3.320000000    -3.718000000
H     7.569000000    -3.778000000    -2.313000000
O     6.177000000    -4.362000000     1.311000000
H     6.198000000    -3.490000000     0.919000000
H     6.333000000    -4.210000000     2.244000000
O     3.418000000    -2.635000000    -5.397000000
H     4.033000000    -2.362000000    -4.716000000
H     2.687000000    -3.025000000    -4.918000000
O     4.293000000    -3.242000000    -7.872000000
H     4.045000000    -2.374000000    -8.188000000
H     4.366000000    -3.140000000    -6.923000000
O     5.696000000    -8.497000000    -0.955000000
H     5.503000000    -7.909000000    -0.225000000
H     5.831000000    -7.914000000    -1.703000000
O     4.756000000    -6.490000000     0.944000000
H     5.128000000    -5.664000000     1.251000000
H     4.602000000    -6.995000000     1.743000000
O     5.446000000    -4.478000000    -1.487000000
H     5.633000000    -4.768000000    -0.594000000
H     4.766000000    -3.812000000    -1.385000000
O     5.785000000    -6.525000000    -3.589000000
H     5.650000000    -6.109000000    -2.737000000
H     4.905000000    -6.758000000    -3.884000000
O     5.104000000    -2.062000000    -3.404000000
H     5.543000000    -2.830000000    -3.037000000
H     4.430000000    -1.842000000    -2.761000000
O     6.310000000     0.074000000    -5.034000000
H     5.886000000    -0.710000000    -4.685000000
H     5.794000000     0.801000000    -4.688000000
O     8.401000000    -1.838000000     2.121000000
H     8.250000000    -1.138000000     2.756000000
H     7.764000000    -1.673000000     1.426000000
O     6.871000000    -4.120000000    -5.107000000
H     7.356000000    -3.800000000    -5.868000000
H     6.517000000    -4.964000000    -5.387000000
