215
-1466.28920
C    -1.004000000    -4.079000000     2.678000000
H    -2.061000000    -4.093000000     2.426000000
C    -0.547000000    -3.004000000     3.427000000
C     0.777000000    -3.090000000     3.905000000
H     1.299000000    -2.256000000     4.368000000
C    -1.233000000    -1.761000000     3.547000000
O    -2.672000000    -1.928000000     3.774000000
H    -1.004000000    -1.174000000     2.645000000
O    -0.811000000    -0.962000000     4.674000000
C    -0.709000000     0.398000000     4.534000000
C     0.531000000     0.891000000     4.330000000
H     1.283000000     0.133000000     4.537000000
C     0.856000000     2.206000000     3.955000000
O     2.133000000     2.612000000     3.819000000
C    -0.259000000     3.043000000     3.674000000
C    -0.047000000     4.521000000     3.283000000
H    -0.919000000     5.100000000     3.595000000
C     0.115000000     4.634000000     1.778000000
C    -0.945000000     4.967000000     0.937000000
H    -1.924000000     5.141000000     1.376000000
H     0.828000000     4.869000000     3.835000000
C    -1.467000000     2.496000000     3.841000000
H    -2.252000000     3.191000000     3.555000000
C    -1.764000000     1.223000000     4.311000000
C    -3.214000000     0.828000000     4.478000000
H    -3.750000000     1.768000000     4.625000000
H    -3.303000000     0.200000000     5.367000000
C    -3.777000000     0.148000000     3.227000000
C    -4.536000000     0.918000000     2.382000000
H    -4.759000000     1.965000000     2.569000000
C    -3.504000000    -1.207000000     2.938000000
C    -3.906000000    -1.759000000     1.737000000
H    -3.587000000    -2.767000000     1.486000000
C    -4.553000000    -0.896000000     0.807000000
O    -4.772000000    -1.407000000    -0.438000000
C    -3.856000000    -1.123000000    -1.501000000
C    -3.457000000    -2.386000000    -2.288000000
C    -3.005000000    -2.207000000    -3.617000000
H    -2.826000000    -1.200000000    -3.986000000
C    -3.630000000    -3.693000000    -1.777000000
H    -4.105000000    -3.772000000    -0.803000000
O    -4.523000000    -0.157000000    -2.305000000
H    -2.877000000    -0.749000000    -1.166000000
C    -4.859000000     0.416000000     1.102000000
C    -5.368000000     1.347000000     0.011000000
H    -5.783000000     2.242000000     0.478000000
H    -6.130000000     0.847000000    -0.591000000
C    -4.353000000     1.849000000    -0.959000000
C    -3.815000000     3.165000000    -0.728000000
H    -4.006000000     3.778000000     0.150000000
C    -4.053000000     1.124000000    -2.082000000
C    -3.140000000     1.665000000    -3.016000000
H    -2.872000000     0.947000000    -3.787000000
C    -2.496000000     2.861000000    -2.744000000
O    -1.368000000     3.194000000    -3.481000000
C    -0.148000000     2.887000000    -2.823000000
C     0.883000000     2.301000000    -3.767000000
C     0.498000000     1.324000000    -4.681000000
H    -0.544000000     1.177000000    -4.952000000
C     2.297000000     2.487000000    -3.502000000
H     2.623000000     3.157000000    -2.710000000
O     0.466000000     4.176000000    -2.343000000
H    -0.355000000     2.231000000    -1.965000000
C    -2.856000000     3.623000000    -1.645000000
C    -2.062000000     4.885000000    -1.362000000
H    -2.698000000     5.621000000    -0.865000000
H    -1.796000000     5.237000000    -2.361000000
C    -0.820000000     4.863000000    -0.486000000
C     0.399000000     4.425000000    -0.997000000
C     1.526000000     4.162000000    -0.213000000
H     2.442000000     3.833000000    -0.698000000
C     1.359000000     4.284000000     1.168000000
O     2.403000000     4.074000000     1.967000000
C     2.619000000     2.734000000     2.440000000
H     2.123000000     2.005000000     1.781000000
C     4.100000000     2.322000000     2.407000000
C     4.497000000     1.346000000     3.248000000
H     3.886000000     1.056000000     4.099000000
C     4.900000000     2.624000000     1.255000000
H     4.626000000     3.437000000     0.587000000
C     6.068000000     1.913000000     1.023000000
O     7.002000000     2.364000000     0.119000000
C     6.536000000     1.017000000     1.972000000
H     7.573000000     0.696000000     2.043000000
C     5.728000000     0.741000000     3.062000000
O     6.104000000    -0.221000000     3.985000000
C     5.291000000    -1.152000000     4.553000000
C     4.655000000    -2.192000000     3.851000000
H     4.914000000    -2.369000000     2.810000000
C     5.047000000    -1.039000000     5.932000000
H     5.409000000    -0.197000000     6.518000000
C     4.189000000    -1.876000000     6.523000000
H     3.844000000    -1.691000000     7.537000000
C     3.591000000    -2.979000000     5.817000000
H     2.932000000    -3.622000000     6.395000000
C     3.812000000    -3.119000000     4.467000000
O     3.028000000    -4.026000000     3.757000000
C     1.653000000    -4.060000000     3.500000000
C     1.140000000    -5.210000000     2.874000000
H     1.791000000    -6.048000000     2.639000000
C    -0.209000000    -5.191000000     2.487000000
O    -0.636000000    -6.288000000     1.736000000
C    -1.878000000    -6.580000000     1.125000000
C    -2.051000000    -6.299000000    -0.212000000
H    -1.343000000    -5.697000000    -0.776000000
C    -2.920000000    -7.158000000     1.846000000
H    -2.758000000    -7.372000000     2.899000000
C    -4.165000000    -7.399000000     1.224000000
H    -5.028000000    -7.625000000     1.845000000
C    -4.307000000    -7.105000000    -0.130000000
H    -5.302000000    -6.988000000    -0.551000000
C    -3.270000000    -6.615000000    -0.821000000
O    -3.624000000    -6.074000000    -2.054000000
C    -3.285000000    -4.836000000    -2.519000000
C    -2.855000000    -4.626000000    -3.850000000
H    -2.670000000    -5.476000000    -4.502000000
C    -2.760000000    -3.351000000    -4.439000000
O    -2.561000000    -3.268000000    -5.815000000
C    -1.994000000    -2.183000000    -6.461000000
C    -0.845000000    -1.559000000    -6.015000000
H    -0.449000000    -1.764000000    -5.023000000
C    -2.567000000    -1.852000000    -7.729000000
H    -3.456000000    -2.378000000    -8.068000000
C    -1.934000000    -0.788000000    -8.462000000
H    -2.326000000    -0.334000000    -9.369000000
C    -0.740000000    -0.277000000    -7.997000000
H    -0.145000000     0.412000000    -8.590000000
C    -0.187000000    -0.646000000    -6.792000000
O     1.083000000    -0.231000000    -6.469000000
C     1.456000000     0.685000000    -5.498000000
C     2.828000000     0.990000000    -5.332000000
H     3.595000000     0.565000000    -5.974000000
C     3.252000000     1.837000000    -4.295000000
O     4.617000000     2.118000000    -4.169000000
C     5.334000000     2.703000000    -3.161000000
C     5.492000000     4.062000000    -3.371000000
H     4.959000000     4.457000000    -4.232000000
C     6.130000000     4.900000000    -2.482000000
H     6.417000000     5.865000000    -2.892000000
C     6.823000000     4.260000000    -1.433000000
H     7.490000000     4.805000000    -0.770000000
C     6.556000000     2.877000000    -1.060000000
C     5.794000000     2.152000000    -1.961000000
H     5.676000000     1.092000000    -1.750000000
C     0.666000000    -2.236000000    -0.293000000
H     0.526000000    -3.312000000    -0.243000000
C    -0.419000000    -1.436000000     0.035000000
H    -1.362000000    -1.918000000     0.282000000
C    -0.328000000    -0.072000000     0.221000000
H    -1.229000000     0.510000000     0.481000000
C     0.830000000     0.601000000    -0.137000000
H     0.879000000     1.686000000    -0.079000000
C     1.956000000    -0.171000000    -0.435000000
H     2.854000000     0.440000000    -0.481000000
C     1.888000000    -1.587000000    -0.459000000
C     3.222000000    -2.363000000    -0.585000000
O     4.272000000    -1.780000000    -0.595000000
O     3.057000000    -3.592000000    -0.727000000
O     6.885000000    -1.896000000    -0.023000000
H     7.450000000    -1.267000000    -0.473000000
H     5.996000000    -1.622000000    -0.248000000
O     8.550000000    -0.715000000    -2.115000000
H     9.445000000    -0.555000000    -2.414000000
H     8.083000000    -1.003000000    -2.899000000
O     8.129000000    -4.110000000    -1.879000000
H     7.175000000    -4.050000000    -1.927000000
H     8.368000000    -3.542000000    -1.146000000
O     1.044000000    -5.743000000    -0.782000000
H     1.780000000    -5.132000000    -0.749000000
H     0.609000000    -5.641000000     0.064000000
O     2.389000000    -8.500000000    -0.963000000
H     1.793000000    -7.830000000    -1.300000000
H     2.832000000    -8.078000000    -0.227000000
O     1.627000000    -4.565000000    -6.009000000
H     2.030000000    -5.430000000    -6.081000000
H     1.364000000    -4.498000000    -5.091000000
O     6.884000000    -5.156000000     4.534000000
H     6.666000000    -4.319000000     4.123000000
H     6.716000000    -5.015000000     5.466000000
O     0.982000000    -4.111000000    -3.353000000
H     0.753000000    -4.866000000    -2.811000000
H     1.435000000    -3.516000000    -2.756000000
O     8.057000000    -2.565000000    -4.176000000
H     7.521000000    -3.040000000    -4.810000000
H     8.114000000    -3.153000000    -3.422000000
O     6.075000000    -5.051000000     0.420000000
H     5.667000000    -4.189000000     0.497000000
H     7.002000000    -4.895000000     0.598000000
O     2.917000000    -2.321000000    -4.807000000
H     2.830000000    -1.811000000    -5.612000000
H     2.311000000    -3.053000000    -4.919000000
O     3.866000000    -6.934000000     0.863000000
H     4.520000000    -6.241000000     0.776000000
H     3.993000000    -7.273000000     1.750000000
O     5.428000000    -4.037000000    -2.328000000
H     4.720000000    -4.376000000    -1.780000000
H     5.188000000    -3.124000000    -2.491000000
O     5.425000000    -6.993000000    -1.629000000
H     5.779000000    -6.141000000    -1.373000000
H     4.934000000    -7.289000000    -0.862000000
O     5.040000000    -1.068000000    -3.052000000
H     4.377000000    -1.435000000    -3.637000000
H     4.705000000    -1.242000000    -2.172000000
O     6.798000000    -0.385000000    -5.007000000
H     7.385000000    -1.030000000    -4.612000000
H     6.105000000    -0.263000000    -4.358000000
O     7.840000000    -3.205000000     2.108000000
H     7.541000000    -2.721000000     1.339000000
H     7.902000000    -2.544000000     2.798000000
O     5.680000000    -3.189000000    -6.209000000
H     5.830000000    -3.170000000    -7.154000000
H     4.766000000    -2.926000000    -6.106000000
O     5.577000000    -5.875000000    -4.983000000
H     5.548000000    -4.941000000    -4.773000000
H     5.302000000    -6.311000000    -4.177000000
