215
-1427.02813
C    -0.941000000    -3.953000000     2.739000000
H    -1.929000000    -3.983000000     2.288000000
C    -0.489000000    -2.833000000     3.431000000
C     0.873000000    -2.820000000     3.782000000
H     1.357000000    -2.030000000     4.350000000
C    -1.318000000    -1.551000000     3.440000000
O    -2.708000000    -1.828000000     3.486000000
H    -1.061000000    -1.036000000     2.502000000
O    -0.982000000    -0.717000000     4.565000000
C    -0.850000000     0.582000000     4.337000000
C     0.421000000     1.047000000     4.229000000
H     1.241000000     0.342000000     4.343000000
C     0.632000000     2.401000000     3.964000000
O     1.917000000     2.798000000     3.799000000
C    -0.446000000     3.223000000     3.665000000
C    -0.213000000     4.682000000     3.320000000
H    -1.023000000     5.388000000     3.515000000
C     0.085000000     4.764000000     1.854000000
C    -0.970000000     5.147000000     0.912000000
H    -1.930000000     5.508000000     1.273000000
H     0.740000000     4.972000000     3.767000000
C    -1.752000000     2.730000000     3.829000000
H    -2.594000000     3.365000000     3.566000000
C    -1.925000000     1.382000000     4.151000000
C    -3.361000000     0.800000000     4.313000000
H    -4.110000000     1.530000000     4.626000000
H    -3.411000000     0.056000000     5.111000000
C    -3.813000000     0.277000000     3.000000000
C    -4.413000000     1.021000000     2.016000000
H    -4.763000000     2.032000000     2.203000000
C    -3.547000000    -1.068000000     2.752000000
C    -3.990000000    -1.649000000     1.541000000
H    -3.718000000    -2.665000000     1.270000000
C    -4.526000000    -0.851000000     0.481000000
O    -4.789000000    -1.405000000    -0.790000000
C    -3.833000000    -1.101000000    -1.868000000
C    -3.474000000    -2.384000000    -2.599000000
C    -3.059000000    -2.376000000    -3.920000000
H    -3.016000000    -1.493000000    -4.553000000
C    -3.538000000    -3.560000000    -1.860000000
H    -3.820000000    -3.562000000    -0.810000000
O    -4.202000000     0.072000000    -2.714000000
H    -2.894000000    -0.862000000    -1.349000000
C    -4.803000000     0.492000000     0.742000000
C    -5.421000000     1.390000000    -0.367000000
H    -6.114000000     2.176000000    -0.063000000
H    -6.071000000     0.815000000    -1.030000000
C    -4.389000000     2.060000000    -1.254000000
C    -3.807000000     3.273000000    -0.916000000
H    -4.101000000     3.776000000     0.002000000
C    -3.953000000     1.352000000    -2.356000000
C    -2.953000000     1.892000000    -3.152000000
H    -2.637000000     1.416000000    -4.077000000
C    -2.440000000     3.135000000    -2.948000000
O    -1.215000000     3.358000000    -3.529000000
C    -0.053000000     2.949000000    -2.714000000
C     0.884000000     2.078000000    -3.563000000
C     0.546000000     1.466000000    -4.745000000
H    -0.485000000     1.653000000    -5.037000000
C     2.171000000     1.884000000    -3.118000000
H     2.588000000     2.414000000    -2.265000000
O     0.621000000     4.232000000    -2.350000000
H    -0.311000000     2.457000000    -1.765000000
C    -2.801000000     3.789000000    -1.725000000
C    -2.161000000     5.091000000    -1.324000000
H    -2.843000000     5.707000000    -0.735000000
H    -2.057000000     5.825000000    -2.126000000
C    -0.857000000     4.923000000    -0.491000000
C     0.385000000     4.533000000    -1.019000000
C     1.481000000     4.406000000    -0.132000000
H     2.440000000     4.184000000    -0.594000000
C     1.320000000     4.467000000     1.283000000
O     2.376000000     4.131000000     2.023000000
C     2.446000000     2.765000000     2.468000000
H     1.775000000     2.185000000     1.818000000
C     3.885000000     2.177000000     2.297000000
C     4.266000000     1.184000000     3.210000000
H     3.573000000     0.870000000     3.986000000
C     4.881000000     2.729000000     1.406000000
H     4.531000000     3.543000000     0.776000000
C     6.171000000     2.188000000     1.228000000
O     6.952000000     2.566000000     0.225000000
C     6.523000000     1.205000000     2.252000000
H     7.515000000     0.760000000     2.258000000
C     5.572000000     0.697000000     3.140000000
O     6.005000000    -0.244000000     4.037000000
C     5.221000000    -1.188000000     4.667000000
C     4.394000000    -1.997000000     3.970000000
H     4.246000000    -1.954000000     2.894000000
C     5.334000000    -1.204000000     6.030000000
H     5.968000000    -0.529000000     6.599000000
C     4.524000000    -2.043000000     6.734000000
H     4.486000000    -2.129000000     7.817000000
C     3.675000000    -2.988000000     6.059000000
H     3.159000000    -3.794000000     6.574000000
C     3.694000000    -2.975000000     4.687000000
O     2.976000000    -3.962000000     4.054000000
C     1.644000000    -3.961000000     3.662000000
C     1.043000000    -5.206000000     3.337000000
H     1.621000000    -6.122000000     3.243000000
C    -0.169000000    -5.119000000     2.716000000
O    -0.624000000    -6.260000000     2.140000000
C    -1.848000000    -6.306000000     1.481000000
C    -1.950000000    -5.947000000     0.177000000
H    -1.101000000    -5.569000000    -0.388000000
C    -2.955000000    -6.802000000     2.155000000
H    -2.956000000    -7.039000000     3.216000000
C    -4.192000000    -6.914000000     1.515000000
H    -5.130000000    -7.198000000     1.985000000
C    -4.296000000    -6.646000000     0.148000000
H    -5.228000000    -6.820000000    -0.382000000
C    -3.204000000    -6.069000000    -0.478000000
O    -3.285000000    -5.882000000    -1.849000000
C    -3.128000000    -4.689000000    -2.457000000
C    -2.702000000    -4.745000000    -3.755000000
H    -2.321000000    -5.664000000    -4.191000000
C    -2.630000000    -3.596000000    -4.538000000
O    -1.934000000    -3.621000000    -5.821000000
C    -1.584000000    -2.441000000    -6.523000000
C    -0.340000000    -1.807000000    -6.255000000
H     0.377000000    -2.136000000    -5.507000000
C    -2.440000000    -1.958000000    -7.504000000
H    -3.254000000    -2.611000000    -7.810000000
C    -2.114000000    -0.846000000    -8.233000000
H    -2.828000000    -0.561000000    -9.002000000
C    -1.065000000    -0.087000000    -7.880000000
H    -1.004000000     0.916000000    -8.295000000
C    -0.167000000    -0.607000000    -6.924000000
O     1.019000000     0.056000000    -6.686000000
C     1.425000000     0.698000000    -5.516000000
C     2.696000000     0.519000000    -5.068000000
H     3.368000000    -0.139000000    -5.613000000
C     3.108000000     1.155000000    -3.902000000
O     4.447000000     0.959000000    -3.478000000
C     5.201000000     1.932000000    -2.923000000
C     5.775000000     2.928000000    -3.724000000
H     5.547000000     2.764000000    -4.774000000
C     6.651000000     3.843000000    -3.172000000
H     7.098000000     4.520000000    -3.895000000
C     7.140000000     3.713000000    -1.892000000
H     7.951000000     4.288000000    -1.451000000
C     6.563000000     2.690000000    -1.106000000
C     5.602000000     1.817000000    -1.648000000
H     5.200000000     1.043000000    -1.000000000
C     0.509000000    -2.375000000    -0.125000000
H     0.444000000    -3.457000000    -0.046000000
C    -0.611000000    -1.589000000    -0.068000000
H    -1.593000000    -2.045000000     0.023000000
C    -0.560000000    -0.201000000     0.106000000
H    -1.412000000     0.302000000     0.142000000
C     0.701000000     0.420000000     0.044000000
H     0.678000000     1.506000000     0.106000000
C     1.836000000    -0.354000000    -0.120000000
H     2.824000000     0.079000000    -0.254000000
C     1.724000000    -1.766000000    -0.117000000
C     2.970000000    -2.659000000    -0.043000000
O     4.061000000    -2.102000000    -0.041000000
O     2.875000000    -3.859000000    -0.230000000
O     3.774000000    -6.926000000     3.978000000
H     4.454000000    -7.042000000     4.642000000
H     2.951000000    -6.996000000     4.463000000
O     6.685000000    -2.196000000     0.498000000
H     7.056000000    -2.890000000    -0.047000000
H     5.739000000    -2.270000000     0.370000000
O     1.897000000    -6.317000000    -0.627000000
H     2.083000000    -5.563000000    -0.067000000
H     2.301000000    -7.057000000    -0.173000000
O     5.030000000    -7.310000000    -2.569000000
H     5.561000000    -7.170000000    -3.353000000
H     4.658000000    -6.449000000    -2.374000000
O     6.262000000    -7.452000000     0.146000000
H     5.858000000    -7.417000000    -0.721000000
H     5.810000000    -6.775000000     0.649000000
O     3.987000000    -4.742000000    -2.508000000
H     3.341000000    -5.111000000    -3.111000000
H     3.466000000    -4.377000000    -1.793000000
O     7.973000000    -3.068000000     4.311000000
H     7.493000000    -3.560000000     3.645000000
H     7.587000000    -3.348000000     5.141000000
O     1.760000000    -6.420000000    -3.634000000
H     1.729000000    -6.580000000    -2.691000000
H     0.865000000    -6.581000000    -3.934000000
O     5.930000000    -5.092000000     3.931000000
H     5.981000000    -4.726000000     4.814000000
H     5.108000000    -5.582000000     3.921000000
O     5.843000000    -1.580000000    -5.406000000
H     5.765000000    -1.598000000    -4.452000000
H     5.882000000    -2.502000000    -5.660000000
O     7.725000000    -4.612000000    -0.284000000
H     7.081000000    -4.802000000     0.399000000
H     7.454000000    -5.154000000    -1.025000000
O     2.998000000    -7.705000000     1.254000000
H     3.307000000    -7.054000000     1.884000000
H     2.573000000    -8.375000000     1.790000000
O     1.961000000    -4.180000000    -5.598000000
H     1.571000000    -4.818000000    -6.197000000
H     1.929000000    -4.606000000    -4.742000000
O     5.232000000    -4.898000000     0.910000000
H     5.083000000    -4.696000000     1.834000000
H     4.684000000    -4.272000000     0.437000000
O     8.049000000    -3.581000000    -3.590000000
H     7.182000000    -3.184000000    -3.504000000
H     8.158000000    -3.718000000    -4.531000000
O     5.524000000    -2.403000000    -2.430000000
H     5.236000000    -3.290000000    -2.213000000
H     5.132000000    -1.852000000    -1.753000000
O     7.705000000    -0.058000000    -2.423000000
H     7.206000000     0.682000000    -2.076000000
H     7.136000000    -0.815000000    -2.284000000
O     9.268000000    -1.977000000     1.674000000
H     9.377000000    -2.926000000     1.736000000
H     8.344000000    -1.856000000     1.451000000
O    -0.099000000    -8.054000000    -0.831000000
H     0.624000000    -7.516000000    -0.507000000
H    -0.554000000    -8.344000000    -0.040000000
