215
-1414.74117
C    -2.338000000    -3.944000000     2.257000000
H    -3.360000000    -3.789000000     1.920000000
C    -1.553000000    -2.970000000     2.855000000
C    -0.304000000    -3.326000000     3.274000000
H     0.339000000    -2.587000000     3.745000000
C    -2.018000000    -1.564000000     3.014000000
O    -3.440000000    -1.362000000     2.843000000
H    -1.512000000    -0.933000000     2.269000000
O    -1.711000000    -1.007000000     4.256000000
C    -1.255000000     0.233000000     4.350000000
C     0.155000000     0.366000000     4.540000000
H     0.741000000    -0.512000000     4.801000000
C     0.711000000     1.556000000     4.348000000
O     2.101000000     1.591000000     4.317000000
C    -0.063000000     2.737000000     4.073000000
C     0.541000000     4.057000000     3.743000000
H    -0.107000000     4.872000000     4.072000000
C     0.888000000     4.250000000     2.291000000
C     0.007000000     4.859000000     1.378000000
H    -0.939000000     5.253000000     1.737000000
H     1.459000000     4.136000000     4.330000000
C    -1.504000000     2.592000000     4.021000000
H    -2.117000000     3.457000000     3.778000000
C    -2.050000000     1.364000000     4.108000000
C    -3.596000000     1.243000000     3.950000000
H    -4.183000000     2.057000000     4.378000000
H    -3.977000000     0.492000000     4.645000000
C    -3.958000000     0.896000000     2.539000000
C    -4.262000000     1.951000000     1.629000000
H    -4.338000000     3.002000000     1.896000000
C    -3.956000000    -0.380000000     2.081000000
C    -4.377000000    -0.744000000     0.790000000
H    -4.208000000    -1.765000000     0.457000000
C    -4.838000000     0.265000000    -0.035000000
O    -5.043000000    -0.107000000    -1.347000000
C    -3.854000000     0.059000000    -2.247000000
C    -3.594000000    -1.220000000    -3.107000000
C    -2.920000000    -1.114000000    -4.295000000
H    -2.410000000    -0.207000000    -4.613000000
C    -4.021000000    -2.460000000    -2.604000000
H    -4.691000000    -2.417000000    -1.749000000
O    -4.021000000     1.263000000    -3.006000000
H    -3.072000000     0.217000000    -1.489000000
C    -4.674000000     1.625000000     0.342000000
C    -4.958000000     2.780000000    -0.659000000
H    -5.264000000     3.619000000    -0.030000000
H    -5.801000000     2.507000000    -1.298000000
C    -3.633000000     3.112000000    -1.407000000
C    -2.794000000     4.049000000    -0.865000000
H    -3.091000000     4.661000000    -0.018000000
C    -3.262000000     2.352000000    -2.506000000
C    -2.001000000     2.489000000    -3.084000000
H    -1.650000000     1.860000000    -3.898000000
C    -1.205000000     3.519000000    -2.654000000
O    -0.001000000     3.689000000    -3.283000000
C     1.084000000     3.249000000    -2.541000000
C     2.003000000     2.339000000    -3.347000000
C     1.708000000     1.930000000    -4.666000000
H     0.877000000     2.310000000    -5.254000000
C     3.205000000     1.905000000    -2.807000000
H     3.438000000     2.105000000    -1.764000000
O     1.846000000     4.261000000    -1.755000000
H     0.707000000     2.532000000    -1.797000000
C    -1.544000000     4.236000000    -1.486000000
C    -0.619000000     5.373000000    -1.068000000
H    -1.270000000     6.176000000    -0.716000000
H    -0.023000000     5.847000000    -1.850000000
C     0.335000000     4.849000000     0.022000000
C     1.561000000     4.325000000    -0.427000000
C     2.420000000     3.794000000     0.520000000
H     3.313000000     3.281000000     0.173000000
C     2.079000000     3.758000000     1.855000000
O     2.986000000     3.076000000     2.670000000
C     2.706000000     1.712000000     3.032000000
H     2.159000000     1.198000000     2.228000000
C     3.968000000     0.812000000     3.003000000
C     4.003000000    -0.303000000     3.812000000
H     3.183000000    -0.538000000     4.486000000
C     5.086000000     1.215000000     2.220000000
H     5.022000000     2.102000000     1.594000000
C     6.239000000     0.398000000     2.247000000
O     7.317000000     0.664000000     1.393000000
C     6.270000000    -0.787000000     3.020000000
H     7.163000000    -1.406000000     2.998000000
C     5.138000000    -1.120000000     3.784000000
O     5.191000000    -2.085000000     4.699000000
C     4.163000000    -2.926000000     4.989000000
C     3.393000000    -3.589000000     4.031000000
H     3.706000000    -3.569000000     2.991000000
C     3.705000000    -2.946000000     6.299000000
H     4.256000000    -2.356000000     7.026000000
C     2.569000000    -3.577000000     6.631000000
H     2.301000000    -3.716000000     7.675000000
C     1.805000000    -4.159000000     5.611000000
H     0.790000000    -4.514000000     5.768000000
C     2.293000000    -4.255000000     4.354000000
O     1.513000000    -4.928000000     3.417000000
C     0.226000000    -4.600000000     3.077000000
C    -0.593000000    -5.536000000     2.400000000
H    -0.195000000    -6.519000000     2.163000000
C    -1.856000000    -5.239000000     1.950000000
O    -2.596000000    -6.263000000     1.309000000
C    -3.654000000    -6.157000000     0.432000000
C    -3.453000000    -5.587000000    -0.771000000
H    -2.492000000    -5.258000000    -1.157000000
C    -4.945000000    -6.368000000     0.856000000
H    -5.112000000    -6.773000000     1.851000000
C    -5.995000000    -6.151000000    -0.009000000
H    -7.028000000    -6.314000000     0.285000000
C    -5.764000000    -5.569000000    -1.234000000
H    -6.618000000    -5.339000000    -1.866000000
C    -4.455000000    -5.188000000    -1.647000000
O    -4.173000000    -4.836000000    -2.929000000
C    -3.686000000    -3.610000000    -3.287000000
C    -2.952000000    -3.537000000    -4.456000000
H    -2.785000000    -4.476000000    -4.978000000
C    -2.535000000    -2.318000000    -4.938000000
O    -1.815000000    -2.305000000    -6.137000000
C    -1.104000000    -1.274000000    -6.728000000
C     0.064000000    -0.733000000    -6.192000000
H     0.457000000    -1.120000000    -5.255000000
C    -1.615000000    -0.797000000    -7.928000000
H    -2.590000000    -1.147000000    -8.258000000
C    -0.802000000     0.050000000    -8.777000000
H    -1.213000000     0.478000000    -9.688000000
C     0.317000000     0.585000000    -8.211000000
H     0.994000000     1.177000000    -8.822000000
C     0.789000000     0.171000000    -6.977000000
O     2.087000000     0.577000000    -6.596000000
C     2.550000000     1.035000000    -5.320000000
C     3.757000000     0.637000000    -4.798000000
H     4.422000000    -0.045000000    -5.321000000
C     4.116000000     1.038000000    -3.516000000
O     5.343000000     0.752000000    -3.008000000
C     5.943000000     1.450000000    -1.929000000
C     6.373000000     2.806000000    -2.033000000
H     6.232000000     3.336000000    -2.972000000
C     6.925000000     3.503000000    -0.999000000
H     7.169000000     4.557000000    -1.112000000
C     7.412000000     2.714000000     0.093000000
H     8.046000000     3.184000000     0.839000000
C     7.122000000     1.339000000     0.215000000
C     6.398000000     0.695000000    -0.799000000
H     6.216000000    -0.377000000    -0.762000000
C    -0.018000000    -2.343000000    -0.926000000
H    -0.351000000    -3.362000000    -1.104000000
C    -0.820000000    -1.259000000    -0.605000000
H    -1.881000000    -1.360000000    -0.396000000
C    -0.310000000     0.001000000    -0.455000000
H    -0.948000000     0.855000000    -0.242000000
C     1.064000000     0.253000000    -0.567000000
H     1.569000000     1.214000000    -0.511000000
C     1.918000000    -0.797000000    -0.869000000
H     2.965000000    -0.565000000    -1.048000000
C     1.399000000    -2.102000000    -1.130000000
C     2.325000000    -3.160000000    -1.587000000
O     3.552000000    -3.070000000    -1.460000000
O     1.885000000    -4.285000000    -1.951000000
O     4.570000000    -7.149000000    -5.102000000
H     4.315000000    -6.605000000    -4.357000000
H     4.980000000    -6.539000000    -5.715000000
O    -0.289000000    -5.739000000    -7.560000000
H    -0.282000000    -5.662000000    -6.606000000
H     0.273000000    -5.025000000    -7.862000000
O     7.256000000    -6.314000000    -0.425000000
H     7.136000000    -5.871000000    -1.265000000
H     6.367000000    -6.503000000    -0.125000000
O     1.558000000    -9.097000000    -1.695000000
H     0.940000000    -9.427000000    -1.043000000
H     1.726000000    -8.193000000    -1.430000000
O    -2.603000000    -7.224000000    -3.757000000
H    -3.201000000    -7.472000000    -3.052000000
H    -2.131000000    -6.465000000    -3.414000000
O     1.977000000    -6.287000000    -0.160000000
H     2.697000000    -5.761000000     0.188000000
H     1.690000000    -5.814000000    -0.941000000
O     3.307000000    -4.667000000    -6.185000000
H     2.555000000    -4.794000000    -6.763000000
H     4.015000000    -5.159000000    -6.602000000
O     6.581000000    -4.176000000    -5.685000000
H     6.934000000    -3.627000000    -4.985000000
H     5.639000000    -4.007000000    -5.670000000
O     2.952000000    -9.599000000    -3.949000000
H     3.714000000    -9.035000000    -4.083000000
H     2.469000000    -9.184000000    -3.235000000
O     5.440000000    -5.442000000     2.284000000
H     4.681000000    -5.113000000     1.802000000
H     5.584000000    -6.320000000     1.932000000
O    -0.074000000    -5.465000000    -4.797000000
H     0.279000000    -6.069000000    -4.144000000
H     0.195000000    -4.598000000    -4.492000000
O     4.590000000    -5.130000000    -0.392000000
H     4.401000000    -4.222000000    -0.630000000
H     4.618000000    -5.596000000    -1.227000000
O     4.317000000    -2.169000000    -6.130000000
H     4.483000000    -2.107000000    -5.189000000
H     3.860000000    -3.003000000    -6.238000000
O     5.233000000    -7.872000000     1.132000000
H     5.221000000    -8.284000000     0.268000000
H     4.326000000    -7.922000000     1.435000000
O     2.518000000    -7.513000000     2.287000000
H     1.825000000    -7.650000000     2.933000000
H     2.103000000    -6.993000000     1.598000000
O     8.014000000    -3.131000000    -2.036000000
H     8.537000000    -2.937000000    -1.258000000
H     8.649000000    -3.450000000    -2.678000000
O     3.553000000    -5.417000000    -3.405000000
H     3.169000000    -4.795000000    -2.787000000
H     3.553000000    -4.953000000    -4.242000000
O     5.395000000    -2.455000000    -3.190000000
H     6.127000000    -2.635000000    -2.600000000
H     4.629000000    -2.422000000    -2.618000000
O     7.789000000    -1.135000000    -4.413000000
H     6.957000000    -0.984000000    -4.862000000
H     7.538000000    -1.460000000    -3.548000000
