215
-1442.61554
C    -2.896000000    -3.672000000     2.380000000
H    -3.843000000    -3.389000000     1.928000000
C    -1.991000000    -2.723000000     3.000000000
C    -0.644000000    -3.193000000     3.272000000
H    -0.002000000    -2.493000000     3.801000000
C    -2.420000000    -1.260000000     3.150000000
O    -3.909000000    -1.142000000     3.115000000
H    -2.004000000    -0.663000000     2.325000000
O    -1.804000000    -0.828000000     4.407000000
C    -1.132000000     0.379000000     4.400000000
C     0.245000000     0.376000000     4.445000000
H     0.834000000    -0.538000000     4.429000000
C     0.993000000     1.533000000     4.297000000
O     2.377000000     1.437000000     4.211000000
C     0.237000000     2.707000000     4.086000000
C     1.019000000     4.011000000     3.856000000
H     0.474000000     4.863000000     4.268000000
C     1.438000000     4.125000000     2.356000000
C     0.636000000     4.822000000     1.505000000
H    -0.174000000     5.443000000     1.879000000
H     1.955000000     3.966000000     4.415000000
C    -1.145000000     2.682000000     3.906000000
H    -1.684000000     3.607000000     3.715000000
C    -1.928000000     1.537000000     4.177000000
C    -3.457000000     1.516000000     4.135000000
H    -3.696000000     2.486000000     4.577000000
H    -3.702000000     0.840000000     4.957000000
C    -4.052000000     1.233000000     2.769000000
C    -4.253000000     2.322000000     1.881000000
H    -4.136000000     3.361000000     2.177000000
C    -4.232000000    -0.077000000     2.360000000
C    -4.680000000    -0.304000000     1.048000000
H    -4.863000000    -1.309000000     0.675000000
C    -4.726000000     0.746000000     0.121000000
O    -4.914000000     0.331000000    -1.179000000
C    -3.711000000     0.369000000    -1.957000000
C    -3.635000000    -0.980000000    -2.725000000
C    -2.701000000    -1.017000000    -3.783000000
H    -2.199000000    -0.063000000    -3.921000000
C    -4.185000000    -2.142000000    -2.300000000
H    -4.732000000    -2.279000000    -1.371000000
O    -3.709000000     1.528000000    -2.806000000
H    -2.868000000     0.441000000    -1.254000000
C    -4.533000000     2.063000000     0.539000000
C    -4.558000000     3.202000000    -0.497000000
H    -4.830000000     4.131000000     0.010000000
H    -5.311000000     3.227000000    -1.287000000
C    -3.259000000     3.408000000    -1.217000000
C    -2.380000000     4.349000000    -0.747000000
H    -2.605000000     4.912000000     0.155000000
C    -2.984000000     2.676000000    -2.384000000
C    -1.746000000     2.801000000    -2.990000000
H    -1.474000000     2.046000000    -3.724000000
C    -0.877000000     3.837000000    -2.554000000
O     0.374000000     3.853000000    -3.142000000
C     1.423000000     3.164000000    -2.424000000
C     2.158000000     2.304000000    -3.456000000
C     1.616000000     2.017000000    -4.658000000
H     0.611000000     2.347000000    -4.905000000
C     3.454000000     1.899000000    -3.196000000
H     3.920000000     2.029000000    -2.223000000
O     2.252000000     4.108000000    -1.738000000
H     0.903000000     2.476000000    -1.741000000
C    -1.170000000     4.608000000    -1.367000000
C    -0.176000000     5.574000000    -0.810000000
H    -0.709000000     6.360000000    -0.271000000
H     0.293000000     6.038000000    -1.680000000
C     0.890000000     4.870000000     0.118000000
C     2.037000000     4.273000000    -0.371000000
C     2.868000000     3.530000000     0.493000000
H     3.736000000     2.998000000     0.114000000
C     2.605000000     3.494000000     1.826000000
O     3.421000000     2.764000000     2.573000000
C     3.040000000     1.390000000     2.926000000
H     2.248000000     1.050000000     2.243000000
C     4.208000000     0.449000000     2.824000000
C     4.207000000    -0.701000000     3.633000000
H     3.386000000    -0.886000000     4.321000000
C     5.174000000     0.684000000     1.878000000
H     5.137000000     1.585000000     1.271000000
C     6.186000000    -0.304000000     1.702000000
O     7.154000000    -0.100000000     0.749000000
C     6.204000000    -1.400000000     2.445000000
H     6.951000000    -2.134000000     2.153000000
C     5.203000000    -1.654000000     3.378000000
O     5.133000000    -2.784000000     4.143000000
C     3.986000000    -3.400000000     4.533000000
C     3.149000000    -3.940000000     3.609000000
H     3.361000000    -3.981000000     2.543000000
C     3.641000000    -3.307000000     5.877000000
H     4.374000000    -2.851000000     6.537000000
C     2.397000000    -3.739000000     6.375000000
H     2.147000000    -3.579000000     7.421000000
C     1.515000000    -4.231000000     5.404000000
H     0.544000000    -4.550000000     5.776000000
C     1.900000000    -4.359000000     4.064000000
O     1.020000000    -4.864000000     3.153000000
C    -0.294000000    -4.498000000     2.975000000
C    -1.166000000    -5.358000000     2.320000000
H    -0.889000000    -6.350000000     1.972000000
C    -2.509000000    -5.042000000     2.116000000
O    -3.249000000    -6.007000000     1.522000000
C    -4.250000000    -5.763000000     0.629000000
C    -4.070000000    -5.070000000    -0.545000000
H    -3.113000000    -4.571000000    -0.676000000
C    -5.466000000    -6.351000000     0.964000000
H    -5.446000000    -7.028000000     1.815000000
C    -6.467000000    -6.318000000    -0.023000000
H    -7.376000000    -6.894000000     0.132000000
C    -6.250000000    -5.688000000    -1.265000000
H    -7.055000000    -5.526000000    -1.977000000
C    -5.074000000    -5.046000000    -1.502000000
O    -4.802000000    -4.378000000    -2.680000000
C    -3.894000000    -3.340000000    -2.887000000
C    -2.966000000    -3.374000000    -3.945000000
H    -2.907000000    -4.329000000    -4.461000000
C    -2.256000000    -2.242000000    -4.280000000
O    -1.257000000    -2.303000000    -5.238000000
C    -1.043000000    -1.223000000    -6.116000000
C     0.245000000    -0.630000000    -6.101000000
H     0.931000000    -0.908000000    -5.304000000
C    -1.884000000    -1.020000000    -7.178000000
H    -2.732000000    -1.648000000    -7.436000000
C    -1.536000000     0.021000000    -8.074000000
H    -2.119000000     0.314000000    -8.943000000
C    -0.400000000     0.771000000    -7.957000000
H    -0.183000000     1.540000000    -8.694000000
C     0.552000000     0.399000000    -6.967000000
O     1.763000000     1.074000000    -6.791000000
C     2.377000000     1.316000000    -5.592000000
C     3.610000000     0.823000000    -5.306000000
H     4.160000000     0.147000000    -5.955000000
C     4.192000000     1.158000000    -4.096000000
O     5.331000000     0.517000000    -3.681000000
C     6.100000000     0.950000000    -2.576000000
C     6.608000000     2.207000000    -2.584000000
H     6.480000000     2.802000000    -3.484000000
C     7.322000000     2.683000000    -1.518000000
H     7.682000000     3.708000000    -1.477000000
C     7.481000000     1.919000000    -0.351000000
H     7.925000000     2.437000000     0.494000000
C     6.985000000     0.600000000    -0.370000000
C     6.440000000     0.092000000    -1.509000000
H     6.105000000    -0.941000000    -1.481000000
C     0.050000000    -2.422000000    -0.664000000
H    -0.249000000    -3.443000000    -0.891000000
C    -0.914000000    -1.573000000    -0.068000000
H    -1.957000000    -1.844000000     0.074000000
C    -0.523000000    -0.286000000     0.319000000
H    -1.365000000     0.391000000     0.647000000
C     0.831000000     0.084000000     0.243000000
H     1.075000000     1.101000000     0.538000000
C     1.756000000    -0.833000000    -0.246000000
H     2.795000000    -0.596000000    -0.458000000
C     1.416000000    -2.084000000    -0.709000000
C     2.407000000    -3.105000000    -1.135000000
O     3.559000000    -2.849000000    -1.101000000
O     2.053000000    -4.244000000    -1.371000000
O    -3.069000000    -7.095000000    -3.797000000
H    -2.265000000    -6.797000000    -3.370000000
H    -3.438000000    -7.737000000    -3.191000000
O     0.080000000    -8.806000000     0.906000000
H     0.497000000    -8.218000000     1.536000000
H    -0.720000000    -9.097000000     1.342000000
O     5.216000000    -5.161000000    -4.587000000
H     5.687000000    -4.341000000    -4.435000000
H     4.762000000    -5.332000000    -3.762000000
O     2.245000000    -5.535000000    -5.617000000
H     1.883000000    -5.379000000    -4.745000000
H     2.980000000    -6.130000000    -5.469000000
O    -0.725000000    -7.464000000    -1.579000000
H    -1.002000000    -6.664000000    -1.133000000
H    -0.290000000    -7.979000000    -0.900000000
O     2.350000000    -6.384000000     0.758000000
H     1.975000000    -5.962000000     1.531000000
H     2.606000000    -5.659000000     0.189000000
O     7.954000000    -1.910000000    -3.582000000
H     8.363000000    -2.124000000    -4.421000000
H     8.184000000    -2.643000000    -3.010000000
O     4.116000000    -7.821000000    -4.770000000
H     4.189000000    -6.994000000    -4.293000000
H     4.609000000    -8.448000000    -4.241000000
O    -0.703000000    -5.725000000    -5.760000000
H    -0.015000000    -6.388000000    -5.817000000
H    -0.372000000    -5.090000000    -5.126000000
O     6.313000000    -5.635000000     2.419000000
H     6.060000000    -5.113000000     1.658000000
H     5.536000000    -6.157000000     2.621000000
O     0.812000000    -5.524000000    -3.236000000
H     0.336000000    -6.057000000    -2.599000000
H     1.357000000    -4.945000000    -2.704000000
O     5.343000000    -4.915000000    -0.138000000
H     4.809000000    -4.192000000    -0.468000000
H     6.182000000    -4.817000000    -0.587000000
O     4.518000000    -2.278000000    -6.521000000
H     4.276000000    -2.192000000    -5.599000000
H     3.904000000    -2.925000000    -6.870000000
O     4.285000000    -8.348000000     0.314000000
H     3.649000000    -9.022000000     0.556000000
H     3.777000000    -7.537000000     0.292000000
O     4.950000000    -8.727000000    -2.225000000
H     5.809000000    -8.920000000    -1.852000000
H     4.476000000    -8.285000000    -1.521000000
O     3.972000000    -5.864000000    -2.311000000
H     3.272000000    -5.244000000    -2.104000000
H     4.578000000    -5.794000000    -1.574000000
O     4.790000000    -2.455000000    -3.504000000
H     5.482000000    -1.802000000    -3.399000000
H     4.299000000    -2.417000000    -2.683000000
O     7.814000000    -4.659000000    -1.618000000
H     8.320000000    -5.440000000    -1.844000000
H     8.463000000    -4.046000000    -1.271000000
O     2.288000000    -3.628000000    -7.678000000
H     1.434000000    -3.670000000    -8.109000000
H     2.160000000    -4.083000000    -6.846000000
