215
-1467.99339
C    -1.654000000    -4.314000000     3.083000000
H    -2.715000000    -4.158000000     2.906000000
C    -0.830000000    -3.237000000     3.391000000
C     0.519000000    -3.239000000     3.076000000
H     1.178000000    -2.411000000     3.328000000
C    -1.477000000    -1.898000000     3.657000000
O    -2.964000000    -1.967000000     3.655000000
H    -1.237000000    -1.302000000     2.764000000
O    -0.884000000    -1.191000000     4.836000000
C    -0.651000000     0.178000000     4.664000000
C     0.727000000     0.570000000     4.549000000
H     1.465000000    -0.226000000     4.618000000
C     1.088000000     1.870000000     4.170000000
O     2.436000000     2.105000000     3.875000000
C     0.124000000     2.852000000     4.077000000
C     0.535000000     4.364000000     3.760000000
H    -0.167000000     5.049000000     4.239000000
C     0.666000000     4.481000000     2.228000000
C    -0.447000000     5.001000000     1.530000000
H    -1.276000000     5.350000000     2.141000000
H     1.453000000     4.650000000     4.278000000
C    -1.203000000     2.483000000     4.291000000
H    -1.941000000     3.281000000     4.252000000
C    -1.637000000     1.157000000     4.532000000
C    -3.080000000     0.811000000     4.597000000
H    -3.690000000     1.646000000     4.947000000
H    -3.195000000    -0.008000000     5.309000000
C    -3.669000000     0.323000000     3.263000000
C    -4.280000000     1.291000000     2.445000000
H    -4.308000000     2.358000000     2.651000000
C    -3.644000000    -1.047000000     2.920000000
C    -4.238000000    -1.450000000     1.719000000
H    -4.145000000    -2.492000000     1.424000000
C    -4.780000000    -0.484000000     0.867000000
O    -4.942000000    -0.881000000    -0.424000000
C    -3.907000000    -0.680000000    -1.328000000
C    -3.773000000    -1.964000000    -2.170000000
C    -3.055000000    -1.858000000    -3.368000000
H    -2.805000000    -0.882000000    -3.776000000
C    -4.093000000    -3.295000000    -1.694000000
H    -4.611000000    -3.477000000    -0.756000000
O    -4.197000000     0.469000000    -2.206000000
H    -2.987000000    -0.473000000    -0.762000000
C    -4.816000000     0.897000000     1.220000000
C    -5.182000000     1.948000000     0.220000000
H    -5.563000000     2.817000000     0.759000000
H    -6.064000000     1.550000000    -0.287000000
C    -3.991000000     2.385000000    -0.721000000
C    -3.309000000     3.558000000    -0.399000000
H    -3.599000000     4.047000000     0.527000000
C    -3.693000000     1.667000000    -1.887000000
C    -2.677000000     2.162000000    -2.694000000
H    -2.494000000     1.622000000    -3.620000000
C    -2.021000000     3.350000000    -2.408000000
O    -0.953000000     3.628000000    -3.216000000
C     0.375000000     3.371000000    -2.619000000
C     1.286000000     2.828000000    -3.708000000
C     0.803000000     1.882000000    -4.634000000
H    -0.224000000     1.534000000    -4.559000000
C     2.618000000     3.126000000    -3.833000000
H     3.114000000     3.863000000    -3.207000000
O     1.001000000     4.563000000    -1.952000000
H     0.248000000     2.560000000    -1.888000000
C    -2.340000000     4.054000000    -1.224000000
C    -1.570000000     5.353000000    -0.760000000
H    -2.364000000     5.836000000    -0.186000000
H    -1.288000000     5.927000000    -1.645000000
C    -0.323000000     5.125000000     0.096000000
C     0.869000000     4.709000000    -0.560000000
C     1.965000000     4.261000000     0.180000000
H     2.931000000     4.034000000    -0.264000000
C     1.862000000     4.076000000     1.584000000
O     2.924000000     3.621000000     2.321000000
C     2.829000000     2.172000000     2.486000000
H     1.943000000     1.801000000     1.950000000
C     4.108000000     1.454000000     2.124000000
C     4.689000000     0.479000000     2.964000000
H     4.325000000     0.280000000     3.968000000
C     4.711000000     1.667000000     0.907000000
H     4.401000000     2.536000000     0.333000000
C     5.824000000     0.933000000     0.461000000
O     6.463000000     1.152000000    -0.750000000
C     6.296000000    -0.111000000     1.260000000
H     7.134000000    -0.697000000     0.890000000
C     5.700000000    -0.358000000     2.487000000
O     6.135000000    -1.414000000     3.272000000
C     5.311000000    -2.461000000     3.621000000
C     4.298000000    -2.905000000     2.745000000
H     4.050000000    -2.389000000     1.821000000
C     5.514000000    -3.170000000     4.851000000
H     6.197000000    -2.854000000     5.636000000
C     4.707000000    -4.264000000     5.147000000
H     4.952000000    -4.911000000     5.986000000
C     3.649000000    -4.670000000     4.264000000
H     3.003000000    -5.522000000     4.458000000
C     3.495000000    -3.982000000     3.117000000
O     2.516000000    -4.322000000     2.217000000
C     1.183000000    -4.392000000     2.566000000
C     0.331000000    -5.453000000     2.260000000
H     0.739000000    -6.333000000     1.771000000
C    -1.030000000    -5.422000000     2.495000000
O    -1.731000000    -6.478000000     2.140000000
C    -2.856000000    -6.435000000     1.466000000
C    -2.795000000    -6.064000000     0.126000000
H    -1.850000000    -5.821000000    -0.354000000
C    -4.107000000    -6.755000000     2.100000000
H    -4.067000000    -7.161000000     3.108000000
C    -5.253000000    -6.829000000     1.268000000
H    -6.235000000    -7.097000000     1.650000000
C    -5.157000000    -6.416000000    -0.040000000
H    -6.051000000    -6.453000000    -0.657000000
C    -4.014000000    -5.933000000    -0.600000000
O    -3.943000000    -5.638000000    -1.933000000
C    -3.676000000    -4.359000000    -2.426000000
C    -3.097000000    -4.224000000    -3.647000000
H    -2.811000000    -5.051000000    -4.291000000
C    -2.787000000    -2.943000000    -4.171000000
O    -2.294000000    -2.889000000    -5.447000000
C    -1.989000000    -1.695000000    -6.062000000
C    -0.647000000    -1.270000000    -6.101000000
H     0.207000000    -1.841000000    -5.747000000
C    -2.982000000    -0.808000000    -6.320000000
H    -4.021000000    -1.092000000    -6.173000000
C    -2.696000000     0.483000000    -6.766000000
H    -3.432000000     1.170000000    -7.178000000
C    -1.338000000     0.890000000    -6.919000000
H    -1.050000000     1.876000000    -7.273000000
C    -0.346000000    -0.002000000    -6.616000000
O     1.034000000     0.431000000    -6.616000000
C     1.569000000     1.325000000    -5.700000000
C     2.925000000     1.697000000    -5.778000000
H     3.541000000     1.314000000    -6.588000000
C     3.449000000     2.521000000    -4.772000000
O     4.727000000     3.027000000    -4.933000000
C     5.545000000     3.075000000    -3.800000000
C     6.359000000     4.247000000    -3.593000000
H     6.430000000     4.892000000    -4.466000000
C     7.182000000     4.337000000    -2.495000000
H     7.894000000     5.144000000    -2.339000000
C     7.096000000     3.367000000    -1.479000000
H     7.821000000     3.351000000    -0.669000000
C     6.299000000     2.253000000    -1.663000000
C     5.551000000     2.105000000    -2.829000000
H     4.948000000     1.204000000    -2.902000000
C     0.391000000    -2.219000000    -0.666000000
H     0.354000000    -3.269000000    -0.945000000
C    -0.626000000    -1.719000000     0.193000000
H    -1.439000000    -2.325000000     0.585000000
C    -0.654000000    -0.385000000     0.456000000
H    -1.451000000     0.037000000     1.077000000
C     0.351000000     0.507000000     0.017000000
H     0.323000000     1.538000000     0.361000000
C     1.344000000     0.024000000    -0.849000000
H     2.103000000     0.721000000    -1.194000000
C     1.411000000    -1.384000000    -1.165000000
C     2.434000000    -2.001000000    -2.109000000
O     3.283000000    -1.332000000    -2.677000000
O     2.352000000    -3.252000000    -2.240000000
O     4.373000000    -7.704000000    -0.519000000
H     3.945000000    -6.904000000    -0.823000000
H     3.654000000    -8.267000000    -0.233000000
O     6.186000000    -6.901000000    -3.255000000
H     6.717000000    -7.570000000    -2.823000000
H     5.930000000    -6.306000000    -2.550000000
O     6.991000000    -4.986000000    -5.357000000
H     6.666000000    -4.241000000    -4.850000000
H     6.852000000    -5.742000000    -4.787000000
O     3.529000000    -3.990000000    -6.132000000
H     2.615000000    -4.251000000    -6.016000000
H     3.509000000    -3.033000000    -6.106000000
O     0.722000000    -7.213000000    -0.984000000
H     1.131000000    -7.778000000    -0.328000000
H     1.203000000    -6.388000000    -0.923000000
O     2.332000000    -5.107000000    -0.488000000
H     2.275000000    -4.688000000     0.371000000
H     2.385000000    -4.379000000    -1.107000000
O     0.924000000    -4.254000000    -6.704000000
H     0.944000000    -4.057000000    -7.640000000
H     0.184000000    -4.853000000    -6.601000000
O     0.577000000    -6.895000000    -3.764000000
H     0.649000000    -5.940000000    -3.767000000
H     0.394000000    -7.118000000    -2.852000000
O     5.131000000    -5.749000000    -7.247000000
H     4.792000000    -5.049000000    -6.689000000
H     6.073000000    -5.585000000    -7.292000000
O     2.489000000    -0.818000000    -8.787000000
H     3.418000000    -1.028000000    -8.695000000
H     2.215000000    -0.554000000    -7.909000000
O     5.015000000    -6.243000000     1.727000000
H     4.957000000    -6.714000000     0.895000000
H     5.363000000    -5.383000000     1.492000000
O     0.242000000    -4.207000000    -3.732000000
H     0.323000000    -3.784000000    -4.587000000
H     1.040000000    -3.958000000    -3.265000000
O     5.991000000    -5.017000000    -1.324000000
H     6.569000000    -4.383000000    -0.900000000
H     5.485000000    -4.499000000    -1.950000000
O     3.701000000    -1.420000000    -5.406000000
H     4.360000000    -0.757000000    -5.616000000
H     3.613000000    -1.378000000    -4.454000000
O     8.828000000    -1.418000000    -2.671000000
H     8.779000000    -0.844000000    -3.436000000
H     7.916000000    -1.624000000    -2.468000000
O     4.657000000    -3.842000000    -3.411000000
H     3.796000000    -3.618000000    -3.057000000
H     4.625000000    -3.549000000    -4.322000000
O     6.098000000    -1.670000000    -1.875000000
H     5.145000000    -1.747000000    -1.928000000
H     6.256000000    -0.732000000    -1.764000000
O     7.942000000    -3.802000000     1.191000000
H     8.591000000    -3.546000000     0.536000000
H     7.569000000    -2.974000000     1.494000000
O     6.093000000     0.352000000    -6.011000000
H     6.085000000     1.133000000    -6.564000000
H     6.961000000     0.353000000    -5.607000000
