215
-1483.01236
C    -1.067000000    -4.626000000     2.450000000
H    -2.119000000    -4.397000000     2.298000000
C    -0.367000000    -3.599000000     3.097000000
C     0.981000000    -3.819000000     3.457000000
H     1.516000000    -3.041000000     3.995000000
C    -1.087000000    -2.333000000     3.470000000
O    -2.557000000    -2.442000000     3.484000000
H    -0.857000000    -1.515000000     2.771000000
O    -0.628000000    -1.752000000     4.702000000
C    -0.381000000    -0.400000000     4.580000000
C     0.970000000    -0.043000000     4.314000000
H     1.807000000    -0.735000000     4.278000000
C     1.248000000     1.322000000     4.040000000
O     2.570000000     1.758000000     3.652000000
C     0.211000000     2.313000000     4.180000000
C     0.476000000     3.780000000     3.903000000
H    -0.243000000     4.465000000     4.355000000
C     0.518000000     4.049000000     2.388000000
C    -0.560000000     4.725000000     1.836000000
H    -1.416000000     5.054000000     2.419000000
H     1.481000000     3.969000000     4.286000000
C    -1.074000000     1.942000000     4.553000000
H    -1.914000000     2.632000000     4.582000000
C    -1.422000000     0.558000000     4.682000000
C    -2.861000000     0.116000000     4.914000000
H    -3.498000000     0.839000000     5.427000000
H    -2.922000000    -0.759000000     5.565000000
C    -3.544000000    -0.195000000     3.557000000
C    -4.269000000     0.770000000     2.842000000
H    -4.399000000     1.740000000     3.314000000
C    -3.386000000    -1.420000000     2.965000000
C    -4.050000000    -1.775000000     1.755000000
H    -3.852000000    -2.773000000     1.372000000
C    -4.623000000    -0.770000000     1.073000000
O    -4.961000000    -1.137000000    -0.231000000
C    -3.960000000    -0.756000000    -1.241000000
C    -3.658000000    -1.847000000    -2.332000000
C    -2.901000000    -1.457000000    -3.435000000
H    -2.643000000    -0.417000000    -3.619000000
C    -3.781000000    -3.236000000    -2.068000000
H    -4.374000000    -3.529000000    -1.206000000
O    -4.438000000     0.439000000    -1.805000000
H    -3.006000000    -0.567000000    -0.726000000
C    -4.760000000     0.516000000     1.580000000
C    -5.418000000     1.611000000     0.719000000
H    -5.834000000     2.414000000     1.331000000
H    -6.376000000     1.330000000     0.277000000
C    -4.375000000     2.233000000    -0.184000000
C    -3.783000000     3.424000000     0.188000000
H    -4.017000000     3.901000000     1.137000000
C    -3.934000000     1.610000000    -1.354000000
C    -2.996000000     2.209000000    -2.177000000
H    -2.519000000     1.746000000    -3.037000000
C    -2.457000000     3.462000000    -1.811000000
O    -1.464000000     3.932000000    -2.664000000
C    -0.056000000     3.710000000    -2.330000000
C     0.761000000     3.436000000    -3.572000000
C     0.248000000     2.733000000    -4.666000000
H    -0.838000000     2.689000000    -4.688000000
C     2.080000000     3.769000000    -3.669000000
H     2.617000000     4.281000000    -2.875000000
O     0.412000000     4.922000000    -1.689000000
H     0.003000000     2.823000000    -1.682000000
C    -2.834000000     4.126000000    -0.621000000
C    -1.984000000     5.314000000    -0.120000000
H    -2.488000000     5.946000000     0.614000000
H    -1.855000000     6.033000000    -0.932000000
C    -0.647000000     5.008000000     0.490000000
C     0.478000000     4.774000000    -0.368000000
C     1.589000000     4.161000000     0.182000000
H     2.508000000     3.908000000    -0.342000000
C     1.582000000     3.796000000     1.522000000
O     2.739000000     3.181000000     1.978000000
C     2.789000000     1.798000000     2.266000000
H     1.975000000     1.215000000     1.810000000
C     4.061000000     1.120000000     1.820000000
C     4.671000000     0.095000000     2.565000000
H     4.264000000    -0.244000000     3.514000000
C     4.539000000     1.528000000     0.576000000
H     4.118000000     2.375000000     0.040000000
C     5.620000000     0.758000000     0.055000000
O     6.185000000     1.093000000    -1.177000000
C     6.181000000    -0.314000000     0.740000000
H     7.026000000    -0.881000000     0.358000000
C     5.760000000    -0.625000000     2.036000000
O     6.284000000    -1.783000000     2.589000000
C     5.510000000    -2.569000000     3.446000000
C     4.692000000    -3.575000000     2.947000000
H     4.749000000    -3.804000000     1.886000000
C     5.619000000    -2.407000000     4.889000000
H     6.370000000    -1.742000000     5.309000000
C     4.895000000    -3.219000000     5.705000000
H     4.991000000    -3.262000000     6.787000000
C     3.979000000    -4.151000000     5.172000000
H     3.486000000    -4.805000000     5.887000000
C     3.836000000    -4.271000000     3.774000000
O     2.954000000    -5.112000000     3.160000000
C     1.628000000    -4.908000000     2.842000000
C     0.914000000    -5.860000000     2.073000000
H     1.383000000    -6.770000000     1.707000000
C    -0.452000000    -5.742000000     1.948000000
O    -1.097000000    -6.755000000     1.242000000
C    -2.330000000    -6.532000000     0.664000000
C    -2.298000000    -5.980000000    -0.605000000
H    -1.351000000    -5.753000000    -1.088000000
C    -3.531000000    -6.977000000     1.273000000
H    -3.525000000    -7.367000000     2.288000000
C    -4.708000000    -6.958000000     0.530000000
H    -5.656000000    -7.343000000     0.899000000
C    -4.645000000    -6.516000000    -0.803000000
H    -5.473000000    -6.449000000    -1.503000000
C    -3.437000000    -6.052000000    -1.393000000
O    -3.370000000    -5.575000000    -2.666000000
C    -3.207000000    -4.195000000    -2.881000000
C    -2.573000000    -3.758000000    -4.007000000
H    -1.945000000    -4.494000000    -4.504000000
C    -2.360000000    -2.436000000    -4.275000000
O    -1.548000000    -2.135000000    -5.352000000
C    -1.702000000    -1.000000000    -6.025000000
C    -0.597000000    -0.196000000    -6.070000000
H     0.338000000    -0.588000000    -5.679000000
C    -2.926000000    -0.609000000    -6.574000000
H    -3.792000000    -1.264000000    -6.518000000
C    -3.052000000     0.686000000    -7.158000000
H    -3.967000000     0.935000000    -7.688000000
C    -1.954000000     1.546000000    -7.173000000
H    -1.996000000     2.356000000    -7.898000000
C    -0.738000000     1.107000000    -6.604000000
O     0.347000000     1.879000000    -6.849000000
C     0.993000000     2.432000000    -5.813000000
C     2.330000000     2.838000000    -5.926000000
H     2.957000000     2.547000000    -6.766000000
C     2.922000000     3.449000000    -4.784000000
O     4.245000000     3.783000000    -4.797000000
C     5.072000000     3.648000000    -3.748000000
C     5.913000000     4.680000000    -3.371000000
H     5.911000000     5.641000000    -3.877000000
C     6.610000000     4.617000000    -2.165000000
H     7.101000000     5.547000000    -1.890000000
C     6.682000000     3.449000000    -1.487000000
H     7.296000000     3.464000000    -0.591000000
C     5.958000000     2.315000000    -1.844000000
C     5.161000000     2.434000000    -2.976000000
H     4.616000000     1.579000000    -3.366000000
C     0.616000000    -2.150000000    -0.931000000
H     0.700000000    -3.182000000    -1.261000000
C    -0.425000000    -1.803000000    -0.007000000
H    -1.014000000    -2.603000000     0.433000000
C    -0.627000000    -0.428000000     0.294000000
H    -1.462000000    -0.002000000     0.808000000
C     0.302000000     0.497000000    -0.219000000
H     0.178000000     1.527000000     0.105000000
C     1.374000000     0.113000000    -1.026000000
H     2.071000000     0.910000000    -1.272000000
C     1.522000000    -1.216000000    -1.414000000
C     2.601000000    -1.495000000    -2.369000000
O     3.193000000    -0.631000000    -3.000000000
O     2.933000000    -2.651000000    -2.559000000
O     4.686000000    -6.318000000    -0.164000000
H     5.524000000    -6.779000000    -0.193000000
H     4.917000000    -5.395000000    -0.264000000
O     8.328000000    -5.677000000    -4.976000000
H     8.793000000    -6.166000000    -4.296000000
H     7.537000000    -5.357000000    -4.542000000
O     6.427000000    -3.612000000    -7.630000000
H     6.444000000    -2.836000000    -7.070000000
H     7.060000000    -4.209000000    -7.231000000
O     1.553000000    -2.532000000    -7.674000000
H     2.226000000    -3.206000000    -7.578000000
H     1.988000000    -1.721000000    -7.411000000
O     4.773000000    -3.870000000    -1.064000000
H     5.478000000    -3.224000000    -1.102000000
H     3.979000000    -3.370000000    -1.250000000
O    -1.565000000    -4.250000000    -7.132000000
H    -1.371000000    -3.468000000    -6.617000000
H    -0.745000000    -4.449000000    -7.584000000
O     0.660000000    -6.513000000    -3.217000000
H     0.526000000    -5.628000000    -3.557000000
H    -0.122000000    -6.691000000    -2.695000000
O     3.722000000    -4.803000000    -6.406000000
H     4.034000000    -4.740000000    -5.503000000
H     4.346000000    -4.282000000    -6.912000000
O     0.962000000    -3.987000000    -4.208000000
H     0.668000000    -3.318000000    -4.827000000
H     1.567000000    -3.525000000    -3.627000000
O     8.070000000    -4.811000000    -0.398000000
H     7.741000000    -3.918000000    -0.290000000
H     8.960000000    -4.699000000    -0.731000000
O     3.375000000    -1.196000000    -5.771000000
H     3.017000000    -0.321000000    -5.919000000
H     3.380000000    -1.295000000    -4.819000000
O     2.426000000    -7.846000000    -0.760000000
H     2.929000000    -7.125000000    -0.381000000
H     2.084000000    -7.493000000    -1.581000000
O     2.864000000    -7.360000000    -6.069000000
H     3.059000000    -6.423000000    -6.032000000
H     1.986000000    -7.407000000    -6.447000000
O     6.057000000    -1.570000000    -5.946000000
H     5.101000000    -1.531000000    -5.954000000
H     6.288000000    -1.586000000    -5.018000000
O     6.354000000    -5.263000000    -3.211000000
H     5.493000000    -4.993000000    -2.891000000
H     6.959000000    -4.620000000    -2.841000000
O     5.852000000    -1.070000000    -2.847000000
H     6.209000000    -0.334000000    -2.349000000
H     4.903000000    -0.977000000    -2.765000000
O     7.756000000    -3.032000000    -2.716000000
H     6.905000000    -2.604000000    -2.804000000
H     8.310000000    -2.601000000    -3.366000000
O     5.272000000    -7.555000000    -4.937000000
H     5.540000000    -6.703000000    -4.593000000
H     4.322000000    -7.485000000    -5.035000000
O     3.728000000    -5.019000000    -3.580000000
H     2.940000000    -5.520000000    -3.371000000
H     3.608000000    -4.184000000    -3.127000000
