215
-1449.07590
C    -2.402000000    -4.457000000     2.476000000
H    -3.439000000    -4.308000000     2.186000000
C    -1.689000000    -3.394000000     3.077000000
C    -0.344000000    -3.601000000     3.363000000
H     0.312000000    -2.815000000     3.729000000
C    -2.330000000    -2.037000000     3.302000000
O    -3.814000000    -1.980000000     3.043000000
H    -1.898000000    -1.411000000     2.507000000
O    -2.034000000    -1.345000000     4.556000000
C    -1.578000000    -0.060000000     4.552000000
C    -0.166000000     0.114000000     4.613000000
H     0.497000000    -0.747000000     4.611000000
C     0.360000000     1.338000000     4.401000000
O     1.712000000     1.447000000     4.191000000
C    -0.476000000     2.466000000     4.273000000
C     0.143000000     3.859000000     4.037000000
H    -0.502000000     4.640000000     4.443000000
C     0.320000000     4.116000000     2.539000000
C    -0.569000000     4.859000000     1.738000000
H    -1.578000000     5.070000000     2.083000000
H     1.045000000     3.943000000     4.647000000
C    -1.834000000     2.282000000     4.155000000
H    -2.452000000     3.158000000     3.976000000
C    -2.443000000     1.045000000     4.252000000
C    -3.932000000     0.813000000     4.060000000
H    -4.530000000     1.699000000     4.282000000
H    -4.373000000     0.132000000     4.792000000
C    -4.315000000     0.356000000     2.636000000
C    -4.637000000     1.390000000     1.709000000
H    -4.550000000     2.431000000     2.011000000
C    -4.240000000    -0.959000000     2.180000000
C    -4.420000000    -1.246000000     0.800000000
H    -4.259000000    -2.253000000     0.423000000
C    -4.775000000    -0.233000000    -0.061000000
O    -4.741000000    -0.623000000    -1.429000000
C    -3.529000000    -0.271000000    -2.115000000
C    -2.815000000    -1.352000000    -2.771000000
C    -1.578000000    -1.146000000    -3.494000000
H    -1.087000000    -0.185000000    -3.626000000
C    -3.246000000    -2.668000000    -2.619000000
H    -4.145000000    -2.963000000    -2.083000000
O    -3.573000000     0.928000000    -2.925000000
H    -2.764000000    -0.055000000    -1.355000000
C    -4.825000000     1.100000000     0.387000000
C    -5.075000000     2.220000000    -0.622000000
H    -5.502000000     3.143000000    -0.223000000
H    -5.805000000     1.797000000    -1.315000000
C    -3.818000000     2.731000000    -1.288000000
C    -3.172000000     3.858000000    -0.671000000
H    -3.430000000     4.355000000     0.261000000
C    -3.170000000     2.086000000    -2.413000000
C    -2.123000000     2.772000000    -3.017000000
H    -1.680000000     2.341000000    -3.911000000
C    -1.536000000     3.874000000    -2.424000000
O    -0.396000000     4.395000000    -3.002000000
C     0.862000000     3.916000000    -2.448000000
C     1.910000000     3.659000000    -3.544000000
C     1.478000000     3.226000000    -4.773000000
H     0.412000000     3.150000000    -4.970000000
C     3.276000000     3.600000000    -3.196000000
H     3.634000000     3.925000000    -2.222000000
O     1.304000000     4.922000000    -1.449000000
H     0.771000000     2.992000000    -1.858000000
C    -1.971000000     4.337000000    -1.217000000
C    -1.346000000     5.562000000    -0.621000000
H    -2.121000000     6.165000000    -0.144000000
H    -0.846000000     6.138000000    -1.402000000
C    -0.304000000     5.028000000     0.338000000
C     0.915000000     4.690000000    -0.095000000
C     1.887000000     4.097000000     0.702000000
H     2.823000000     3.779000000     0.251000000
C     1.574000000     3.737000000     2.020000000
O     2.517000000     3.016000000     2.756000000
C     2.213000000     1.649000000     2.909000000
H     1.455000000     1.441000000     2.139000000
C     3.462000000     0.803000000     2.679000000
C     3.863000000    -0.214000000     3.574000000
H     3.385000000    -0.403000000     4.532000000
C     4.168000000     0.964000000     1.505000000
H     3.876000000     1.739000000     0.800000000
C     5.193000000     0.140000000     1.134000000
O     5.809000000     0.182000000    -0.053000000
C     5.455000000    -0.956000000     1.933000000
H     6.156000000    -1.656000000     1.486000000
C     4.887000000    -1.105000000     3.191000000
O     5.230000000    -2.171000000     3.974000000
C     4.373000000    -3.052000000     4.452000000
C     3.380000000    -3.617000000     3.648000000
H     3.371000000    -3.291000000     2.612000000
C     4.320000000    -3.400000000     5.848000000
H     5.004000000    -2.924000000     6.546000000
C     3.384000000    -4.357000000     6.348000000
H     3.523000000    -4.670000000     7.379000000
C     2.400000000    -4.910000000     5.432000000
H     1.608000000    -5.527000000     5.849000000
C     2.400000000    -4.531000000     4.077000000
O     1.568000000    -5.050000000     3.116000000
C     0.202000000    -4.816000000     3.006000000
C    -0.545000000    -5.756000000     2.306000000
H    -0.115000000    -6.730000000     2.090000000
C    -1.868000000    -5.595000000     2.029000000
O    -2.632000000    -6.599000000     1.505000000
C    -3.393000000    -6.432000000     0.340000000
C    -2.808000000    -5.770000000    -0.765000000
H    -1.842000000    -5.282000000    -0.658000000
C    -4.744000000    -6.858000000     0.263000000
H    -5.086000000    -7.447000000     1.110000000
C    -5.502000000    -6.631000000    -0.900000000
H    -6.574000000    -6.804000000    -0.848000000
C    -4.874000000    -6.031000000    -1.968000000
H    -5.357000000    -5.927000000    -2.936000000
C    -3.571000000    -5.573000000    -1.906000000
O    -2.999000000    -5.073000000    -2.992000000
C    -2.536000000    -3.762000000    -3.197000000
C    -1.380000000    -3.546000000    -3.868000000
H    -0.935000000    -4.410000000    -4.355000000
C    -0.912000000    -2.214000000    -4.056000000
O     0.236000000    -2.039000000    -4.800000000
C     0.300000000    -1.090000000    -5.734000000
C     1.149000000     0.000000000    -5.634000000
H     1.882000000     0.035000000    -4.833000000
C    -0.671000000    -1.129000000    -6.652000000
H    -1.258000000    -2.044000000    -6.658000000
C    -0.886000000    -0.160000000    -7.623000000
H    -1.694000000    -0.215000000    -8.347000000
C     0.053000000     0.840000000    -7.638000000
H     0.011000000     1.569000000    -8.443000000
C     1.041000000     1.003000000    -6.641000000
O     1.861000000     2.064000000    -6.725000000
C     2.373000000     2.729000000    -5.669000000
C     3.760000000     2.663000000    -5.366000000
H     4.403000000     2.105000000    -6.041000000
C     4.196000000     3.105000000    -4.114000000
O     5.560000000     2.990000000    -3.900000000
C     5.995000000     2.682000000    -2.652000000
C     6.782000000     3.665000000    -1.979000000
H     7.109000000     4.578000000    -2.470000000
C     7.202000000     3.482000000    -0.654000000
H     7.704000000     4.255000000    -0.079000000
C     6.837000000     2.327000000     0.041000000
H     7.055000000     2.236000000     1.102000000
C     6.092000000     1.389000000    -0.658000000
C     5.555000000     1.593000000    -1.892000000
H     4.806000000     0.936000000    -2.328000000
C     1.273000000    -1.693000000    -0.118000000
H     1.888000000    -2.514000000     0.242000000
C     0.159000000    -1.236000000     0.589000000
H    -0.134000000    -1.729000000     1.512000000
C    -0.479000000    -0.031000000     0.222000000
H    -1.260000000     0.452000000     0.830000000
C    -0.015000000     0.613000000    -0.946000000
H    -0.575000000     1.507000000    -1.211000000
C     1.028000000     0.103000000    -1.666000000
H     1.378000000     0.551000000    -2.592000000
C     1.687000000    -1.035000000    -1.295000000
C     2.784000000    -1.591000000    -2.198000000
O     3.193000000    -0.895000000    -3.094000000
O     3.336000000    -2.665000000    -1.971000000
O     7.023000000    -4.674000000     0.330000000
H     6.824000000    -5.256000000    -0.404000000
H     6.272000000    -4.083000000     0.378000000
O     3.302000000    -7.456000000    -5.625000000
H     4.063000000    -7.151000000    -5.132000000
H     3.398000000    -8.408000000    -5.650000000
O     0.994000000    -6.041000000    -5.257000000
H     0.444000000    -6.184000000    -4.487000000
H     1.644000000    -6.742000000    -5.221000000
O     2.681000000    -2.812000000    -9.134000000
H     2.367000000    -3.149000000    -8.295000000
H     3.287000000    -2.110000000    -8.898000000
O     7.820000000     0.132000000    -3.309000000
H     7.508000000    -0.304000000    -2.516000000
H     7.248000000    -0.195000000    -4.003000000
O     4.922000000    -6.347000000    -1.419000000
H     4.316000000    -6.017000000    -0.756000000
H     4.498000000    -6.145000000    -2.253000000
O     3.774000000    -0.182000000    -8.160000000
H     4.714000000    -0.357000000    -8.212000000
H     3.545000000    -0.369000000    -7.250000000
O     8.225000000    -3.293000000     2.049000000
H     8.818000000    -3.919000000     2.465000000
H     7.839000000    -3.778000000     1.319000000
O     3.389000000    -8.975000000    -2.057000000
H     4.216000000    -9.142000000    -2.508000000
H     3.310000000    -8.021000000    -2.046000000
O     7.853000000    -1.531000000    -0.795000000
H     7.148000000    -1.019000000    -0.399000000
H     8.118000000    -2.143000000    -0.109000000
O     7.796000000    -4.626000000    -5.092000000
H     7.157000000    -4.447000000    -4.402000000
H     8.543000000    -5.011000000    -4.633000000
O     1.932000000    -3.892000000    -6.517000000
H     1.685000000    -4.659000000    -5.999000000
H     1.474000000    -3.163000000    -6.098000000
O     3.955000000    -1.406000000    -5.506000000
H     4.335000000    -2.263000000    -5.311000000
H     3.565000000    -1.123000000    -4.679000000
O     3.009000000    -5.644000000     0.368000000
H     2.981000000    -6.080000000     1.220000000
H     2.162000000    -5.842000000    -0.031000000
O     4.872000000    -4.809000000    -5.202000000
H     4.169000000    -4.625000000    -5.825000000
H     5.660000000    -4.872000000    -5.742000000
O     4.726000000    -3.447000000     0.000000000
H     4.313000000    -2.885000000    -0.656000000
H     4.134000000    -4.195000000     0.082000000
O     6.225000000    -1.985000000    -2.838000000
H     5.274000000    -1.883000000    -2.796000000
H     6.474000000    -2.270000000    -1.959000000
O     2.786000000    -5.099000000    -2.771000000
H     2.319000000    -4.972000000    -3.597000000
H     2.977000000    -4.212000000    -2.465000000
O     1.007000000    -6.459000000    -1.224000000
H     1.690000000    -6.052000000    -1.758000000
H     0.283000000    -6.606000000    -1.832000000
