215
-1461.67106
C     2.408000000     3.739000000    -3.129000000
H     2.704000000     2.991000000    -3.860000000
C     2.693000000     3.409000000    -1.789000000
C     2.189000000     4.282000000    -0.795000000
H     2.302000000     4.061000000     0.264000000
C     3.454000000     2.202000000    -1.310000000
O     4.274000000     1.648000000    -2.350000000
H     2.765000000     1.446000000    -0.906000000
O     4.244000000     2.475000000    -0.150000000
C     4.110000000     1.606000000     0.898000000
C     3.541000000     1.997000000     2.107000000
H     3.177000000     3.011000000     2.253000000
C     3.278000000     1.127000000     3.101000000
O     2.481000000     1.506000000     4.133000000
C     3.778000000    -0.150000000     3.029000000
C     3.456000000    -1.172000000     4.084000000
H     4.324000000    -1.834000000     4.046000000
C     2.165000000    -1.892000000     3.972000000
C     2.202000000    -3.109000000     3.344000000
H     3.147000000    -3.488000000     2.965000000
H     3.405000000    -0.694000000     5.065000000
C     4.503000000    -0.538000000     1.895000000
H     5.035000000    -1.485000000     1.862000000
C     4.683000000     0.349000000     0.834000000
C     5.469000000    -0.118000000    -0.377000000
H     6.110000000    -0.980000000    -0.182000000
H     6.049000000     0.709000000    -0.791000000
C     4.519000000    -0.608000000    -1.440000000
C     4.155000000    -1.995000000    -1.489000000
H     4.670000000    -2.701000000    -0.842000000
C     4.023000000     0.262000000    -2.483000000
C     3.207000000    -0.280000000    -3.457000000
H     2.816000000     0.319000000    -4.275000000
C     2.801000000    -1.581000000    -3.448000000
O     1.776000000    -2.018000000    -4.205000000
C     0.434000000    -2.270000000    -3.685000000
C    -0.763000000    -1.656000000    -4.503000000
C    -2.067000000    -2.115000000    -4.451000000
H    -2.213000000    -2.865000000    -3.678000000
C    -0.561000000    -0.521000000    -5.322000000
H     0.426000000    -0.100000000    -5.492000000
O     0.226000000    -3.673000000    -3.311000000
H     0.345000000    -1.818000000    -2.687000000
C     3.325000000    -2.470000000    -2.486000000
C     2.938000000    -3.959000000    -2.467000000
H     3.794000000    -4.550000000    -2.134000000
H     2.753000000    -4.245000000    -3.505000000
C     1.707000000    -4.210000000    -1.544000000
C     1.887000000    -4.532000000    -0.183000000
H     2.912000000    -4.537000000     0.179000000
C     0.409000000    -4.141000000    -2.039000000
C    -0.715000000    -4.289000000    -1.232000000
H    -1.733000000    -4.320000000    -1.612000000
C    -0.472000000    -4.601000000     0.128000000
O    -1.556000000    -4.681000000     0.911000000
C    -1.819000000    -3.498000000     1.657000000
C    -3.223000000    -2.980000000     1.583000000
C    -4.066000000    -3.317000000     0.465000000
H    -3.627000000    -4.015000000    -0.243000000
C    -3.790000000    -2.063000000     2.527000000
H    -3.193000000    -1.791000000     3.394000000
O    -1.447000000    -3.781000000     3.036000000
H    -1.125000000    -2.727000000     1.291000000
C     0.823000000    -4.692000000     0.641000000
C     1.050000000    -4.975000000     2.164000000
H     1.960000000    -5.529000000     2.403000000
H     0.251000000    -5.613000000     2.547000000
C     0.970000000    -3.700000000     2.995000000
C    -0.219000000    -3.140000000     3.423000000
C    -0.231000000    -1.912000000     4.088000000
H    -1.135000000    -1.362000000     4.337000000
C     0.947000000    -1.256000000     4.351000000
O     0.928000000    -0.059000000     4.947000000
C     1.145000000     1.054000000     4.036000000
H     0.884000000     0.795000000     2.999000000
C     0.214000000     2.168000000     4.505000000
C     0.552000000     3.461000000     4.304000000
H     1.560000000     3.612000000     3.925000000
C    -1.116000000     1.934000000     4.978000000
H    -1.331000000     0.874000000     5.083000000
C    -1.964000000     2.970000000     5.272000000
O    -3.229000000     2.722000000     5.778000000
C    -1.520000000     4.261000000     5.106000000
H    -2.295000000     5.015000000     5.217000000
C    -0.339000000     4.512000000     4.539000000
O     0.015000000     5.823000000     4.416000000
C     0.851000000     6.314000000     3.416000000
C     0.515000000     6.087000000     2.096000000
H    -0.279000000     5.387000000     1.850000000
C     2.161000000     6.848000000     3.642000000
H     2.599000000     6.766000000     4.634000000
C     2.899000000     7.377000000     2.601000000
H     3.785000000     7.949000000     2.864000000
C     2.541000000     7.126000000     1.301000000
H     3.167000000     7.368000000     0.446000000
C     1.373000000     6.409000000     1.075000000
O     0.977000000     6.283000000    -0.199000000
C     1.446000000     5.445000000    -1.164000000
C     1.183000000     5.653000000    -2.519000000
H     0.471000000     6.422000000    -2.807000000
C     1.629000000     4.786000000    -3.514000000
O     1.227000000     4.932000000    -4.852000000
C     1.036000000     3.790000000    -5.737000000
C    -0.141000000     3.048000000    -5.754000000
H    -0.912000000     3.341000000    -5.046000000
C     2.064000000     3.569000000    -6.707000000
H     2.986000000     4.142000000    -6.656000000
C     1.997000000     2.424000000    -7.555000000
H     2.716000000     2.165000000    -8.328000000
C     0.839000000     1.613000000    -7.535000000
H     0.599000000     0.834000000    -8.254000000
C    -0.269000000     1.954000000    -6.678000000
O    -1.405000000     1.196000000    -6.831000000
C    -1.618000000     0.073000000    -6.028000000
C    -2.902000000    -0.540000000    -6.031000000
H    -3.661000000    -0.080000000    -6.658000000
C    -3.138000000    -1.593000000    -5.154000000
O    -4.441000000    -2.107000000    -5.005000000
C    -4.885000000    -3.101000000    -4.063000000
C    -5.288000000    -2.751000000    -2.792000000
H    -5.199000000    -1.711000000    -2.488000000
C    -4.951000000    -4.465000000    -4.422000000
H    -4.671000000    -4.828000000    -5.407000000
C    -5.510000000    -5.419000000    -3.574000000
H    -5.546000000    -6.480000000    -3.809000000
C    -5.929000000    -5.027000000    -2.305000000
H    -6.446000000    -5.699000000    -1.625000000
C    -5.794000000    -3.700000000    -1.923000000
O    -6.278000000    -3.308000000    -0.652000000
C    -5.390000000    -2.949000000     0.394000000
C    -5.841000000    -2.006000000     1.255000000
H    -6.842000000    -1.630000000     1.061000000
C    -5.056000000    -1.581000000     2.340000000
O    -5.514000000    -0.497000000     3.011000000
C    -4.949000000    -0.189000000     4.270000000
C    -5.007000000    -1.079000000     5.370000000
H    -5.517000000    -2.022000000     5.190000000
C    -4.442000000    -0.680000000     6.622000000
H    -4.584000000    -1.284000000     7.515000000
C    -3.765000000     0.537000000     6.683000000
H    -3.338000000     0.980000000     7.580000000
C    -3.768000000     1.441000000     5.636000000
C    -4.300000000     1.020000000     4.445000000
H    -4.153000000     1.660000000     3.579000000
C    -2.441000000     0.657000000    -0.286000000
H    -3.480000000     0.603000000    -0.602000000
C    -1.565000000    -0.367000000    -0.661000000
H    -1.893000000    -1.146000000    -1.345000000
C    -0.254000000    -0.282000000    -0.282000000
H     0.409000000    -1.018000000    -0.719000000
C     0.265000000     0.786000000     0.385000000
H     1.330000000     0.833000000     0.597000000
C    -0.577000000     1.901000000     0.657000000
H    -0.220000000     2.733000000     1.258000000
C    -1.938000000     1.828000000     0.378000000
C    -2.892000000     2.969000000     0.807000000
O    -2.420000000     4.098000000     0.972000000
O    -4.132000000     2.826000000     0.817000000
O    -2.294000000     2.638000000    -2.869000000
H    -1.996000000     3.531000000    -2.696000000
H    -1.490000000     2.145000000    -3.032000000
O    -3.177000000     7.981000000     5.249000000
H    -3.770000000     8.609000000     5.662000000
H    -3.721000000     7.212000000     5.082000000
O    -1.872000000     5.663000000    -1.051000000
H    -2.268000000     5.031000000    -0.450000000
H    -1.168000000     6.067000000    -0.543000000
O    -1.149000000     8.781000000    -1.033000000
H    -1.813000000     8.860000000    -0.347000000
H    -1.288000000     7.909000000    -1.402000000
O    -8.700000000     2.774000000     0.355000000
H    -7.793000000     2.564000000     0.580000000
H    -9.144000000     1.926000000     0.337000000
O    -5.781000000     5.400000000    -2.346000000
H    -5.685000000     4.465000000    -2.163000000
H    -5.922000000     5.799000000    -1.487000000
O    -2.737000000     5.908000000    -3.485000000
H    -2.302000000     5.845000000    -2.635000000
H    -3.195000000     6.748000000    -3.458000000
O    -8.345000000     5.455000000     0.492000000
H    -8.758000000     4.591000000     0.496000000
H    -7.445000000     5.291000000     0.774000000
O    -8.380000000     2.980000000    -2.247000000
H    -7.493000000     3.120000000    -2.579000000
H    -8.272000000     2.903000000    -1.299000000
O    -3.210000000     6.076000000     2.631000000
H    -2.858000000     5.451000000     1.998000000
H    -3.010000000     6.934000000     2.258000000
O    -6.456000000     1.802000000     1.514000000
H    -6.344000000     0.992000000     2.013000000
H    -5.571000000     2.033000000     1.232000000
O    -6.626000000     3.671000000     3.843000000
H    -7.139000000     2.968000000     4.241000000
H    -6.652000000     3.484000000     2.905000000
O    -5.018000000     1.716000000    -5.654000000
H    -4.372000000     2.418000000    -5.575000000
H    -4.851000000     1.151000000    -4.901000000
O    -5.043000000     7.904000000    -3.102000000
H    -5.887000000     7.942000000    -3.552000000
H    -5.074000000     7.086000000    -2.606000000
O    -5.635000000     5.252000000     0.706000000
H    -4.908000000     5.802000000     0.998000000
H    -5.280000000     4.363000000     0.713000000
O    -5.510000000     2.652000000    -1.501000000
H    -5.087000000     1.938000000    -1.977000000
H    -4.951000000     2.796000000    -0.737000000
O    -2.814000000     8.466000000     1.169000000
H    -3.709000000     8.784000000     1.288000000
H    -2.297000000     8.963000000     1.804000000
O    -4.711000000     5.623000000     4.775000000
H    -5.409000000     5.041000000     4.474000000
H    -4.086000000     5.642000000     4.050000000
O    -4.106000000     0.662000000    -3.209000000
H    -3.639000000    -0.128000000    -2.936000000
H    -3.481000000     1.372000000    -3.062000000
