215
-1446.99190
C    -2.011000000    -4.181000000     2.779000000
H    -2.985000000    -4.029000000     2.320000000
C    -1.322000000    -3.239000000     3.488000000
C    -0.031000000    -3.538000000     3.998000000
H     0.446000000    -2.803000000     4.641000000
C    -1.928000000    -1.802000000     3.610000000
O    -3.389000000    -1.675000000     3.509000000
H    -1.525000000    -1.176000000     2.800000000
O    -1.522000000    -1.150000000     4.843000000
C    -1.070000000     0.143000000     4.667000000
C     0.302000000     0.362000000     4.651000000
H     1.006000000    -0.465000000     4.685000000
C     0.840000000     1.557000000     4.247000000
O     2.210000000     1.519000000     4.039000000
C     0.016000000     2.633000000     4.168000000
C     0.550000000     4.019000000     3.765000000
H    -0.137000000     4.841000000     3.978000000
C     0.754000000     4.193000000     2.266000000
C    -0.293000000     4.813000000     1.525000000
H    -1.258000000     4.917000000     2.015000000
H     1.515000000     4.209000000     4.240000000
C    -1.387000000     2.522000000     4.270000000
H    -1.955000000     3.436000000     4.120000000
C    -1.928000000     1.253000000     4.411000000
C    -3.412000000     1.012000000     4.456000000
H    -3.797000000     1.998000000     4.724000000
H    -3.722000000     0.340000000     5.259000000
C    -3.897000000     0.559000000     3.054000000
C    -4.400000000     1.495000000     2.152000000
H    -4.606000000     2.513000000     2.472000000
C    -3.861000000    -0.770000000     2.701000000
C    -4.168000000    -1.228000000     1.386000000
H    -4.094000000    -2.288000000     1.158000000
C    -4.606000000    -0.253000000     0.492000000
O    -4.865000000    -0.722000000    -0.757000000
C    -3.780000000    -0.369000000    -1.737000000
C    -3.308000000    -1.484000000    -2.641000000
C    -2.424000000    -1.223000000    -3.679000000
H    -2.001000000    -0.231000000    -3.812000000
C    -3.653000000    -2.799000000    -2.358000000
H    -4.393000000    -3.019000000    -1.593000000
O    -4.182000000     0.811000000    -2.528000000
H    -2.866000000    -0.124000000    -1.175000000
C    -4.751000000     1.112000000     0.875000000
C    -5.189000000     2.121000000    -0.170000000
H    -5.813000000     2.929000000     0.216000000
H    -5.850000000     1.689000000    -0.924000000
C    -3.969000000     2.673000000    -0.972000000
C    -3.184000000     3.768000000    -0.524000000
H    -3.416000000     4.227000000     0.434000000
C    -3.574000000     2.021000000    -2.103000000
C    -2.479000000     2.505000000    -2.811000000
H    -2.127000000     1.956000000    -3.681000000
C    -1.819000000     3.671000000    -2.479000000
O    -0.692000000     3.972000000    -3.166000000
C     0.572000000     3.559000000    -2.644000000
C     1.506000000     3.038000000    -3.763000000
C     0.984000000     2.567000000    -4.938000000
H    -0.085000000     2.594000000    -5.132000000
C     2.877000000     2.878000000    -3.538000000
H     3.272000000     3.268000000    -2.603000000
O     1.302000000     4.547000000    -1.863000000
H     0.326000000     2.709000000    -1.991000000
C    -2.114000000     4.207000000    -1.277000000
C    -1.271000000     5.366000000    -0.755000000
H    -1.862000000     5.953000000    -0.048000000
H    -0.989000000     5.962000000    -1.625000000
C    -0.102000000     4.904000000     0.154000000
C     1.148000000     4.550000000    -0.448000000
C     2.144000000     3.927000000     0.265000000
H     3.025000000     3.507000000    -0.215000000
C     1.922000000     3.771000000     1.587000000
O     2.899000000     3.065000000     2.288000000
C     2.703000000     1.652000000     2.640000000
H     1.916000000     1.265000000     1.976000000
C     3.940000000     0.745000000     2.344000000
C     4.220000000    -0.358000000     3.141000000
H     3.589000000    -0.652000000     3.976000000
C     4.782000000     1.027000000     1.310000000
H     4.645000000     1.936000000     0.730000000
C     5.781000000     0.147000000     0.915000000
O     6.433000000     0.308000000    -0.276000000
C     6.056000000    -0.932000000     1.748000000
H     6.829000000    -1.654000000     1.497000000
C     5.279000000    -1.205000000     2.871000000
O     5.604000000    -2.352000000     3.599000000
C     4.653000000    -2.981000000     4.410000000
C     3.838000000    -3.941000000     3.771000000
H     3.935000000    -4.182000000     2.716000000
C     4.463000000    -2.599000000     5.717000000
H     5.082000000    -1.874000000     6.239000000
C     3.392000000    -3.137000000     6.439000000
H     3.297000000    -2.835000000     7.479000000
C     2.575000000    -4.035000000     5.828000000
H     1.736000000    -4.463000000     6.371000000
C     2.801000000    -4.459000000     4.543000000
O     1.862000000    -5.234000000     3.906000000
C     0.579000000    -4.798000000     3.550000000
C    -0.215000000    -5.739000000     2.881000000
H     0.162000000    -6.750000000     2.746000000
C    -1.492000000    -5.438000000     2.547000000
O    -2.281000000    -6.425000000     1.912000000
C    -3.103000000    -6.144000000     0.851000000
C    -2.648000000    -5.648000000    -0.364000000
H    -1.583000000    -5.504000000    -0.531000000
C    -4.483000000    -6.407000000     1.076000000
H    -4.834000000    -6.862000000     1.999000000
C    -5.428000000    -6.274000000     0.053000000
H    -6.472000000    -6.546000000     0.186000000
C    -4.924000000    -5.916000000    -1.220000000
H    -5.548000000    -5.673000000    -2.076000000
C    -3.557000000    -5.508000000    -1.396000000
O    -3.049000000    -5.274000000    -2.606000000
C    -3.007000000    -3.891000000    -3.032000000
C    -2.211000000    -3.612000000    -4.161000000
H    -1.785000000    -4.428000000    -4.738000000
C    -1.917000000    -2.278000000    -4.451000000
O    -0.914000000    -2.214000000    -5.361000000
C    -0.844000000    -1.258000000    -6.329000000
C     0.167000000    -0.263000000    -6.171000000
H     0.823000000    -0.362000000    -5.310000000
C    -1.620000000    -1.302000000    -7.462000000
H    -2.510000000    -1.919000000    -7.548000000
C    -1.401000000    -0.302000000    -8.394000000
H    -2.021000000    -0.285000000    -9.287000000
C    -0.434000000     0.676000000    -8.264000000
H    -0.239000000     1.417000000    -9.035000000
C     0.463000000     0.658000000    -7.214000000
O     1.297000000     1.772000000    -7.103000000
C     1.856000000     2.193000000    -5.964000000
C     3.251000000     2.054000000    -5.759000000
H     3.902000000     1.679000000    -6.545000000
C     3.789000000     2.444000000    -4.531000000
O     5.121000000     2.265000000    -4.326000000
C     5.659000000     2.456000000    -3.056000000
C     5.955000000     3.768000000    -2.633000000
H     5.670000000     4.621000000    -3.244000000
C     6.484000000     3.853000000    -1.330000000
H     6.691000000     4.826000000    -0.892000000
C     6.782000000     2.693000000    -0.583000000
H     7.170000000     2.813000000     0.425000000
C     6.361000000     1.443000000    -1.010000000
C     5.881000000     1.314000000    -2.310000000
H     5.517000000     0.332000000    -2.600000000
C     1.103000000    -2.415000000    -1.319000000
H     0.951000000    -3.464000000    -1.557000000
C     0.178000000    -1.780000000    -0.512000000
H    -0.483000000    -2.463000000     0.014000000
C     0.250000000    -0.407000000    -0.291000000
H    -0.630000000     0.090000000     0.229000000
C     1.259000000     0.383000000    -0.800000000
H     1.324000000     1.456000000    -0.638000000
C     2.249000000    -0.305000000    -1.528000000
H     3.065000000     0.258000000    -1.974000000
C     2.139000000    -1.660000000    -1.841000000
C     3.102000000    -2.250000000    -2.739000000
O     4.147000000    -1.765000000    -3.139000000
O     2.990000000    -3.428000000    -2.828000000
O     7.630000000    -4.655000000     0.332000000
H     8.315000000    -5.228000000    -0.013000000
H     7.993000000    -3.773000000     0.252000000
O     0.305000000    -6.138000000    -4.522000000
H     0.882000000    -6.088000000    -3.760000000
H     0.783000000    -5.682000000    -5.215000000
O     1.601000000    -4.537000000    -8.213000000
H     1.344000000    -4.472000000    -7.293000000
H     1.947000000    -3.670000000    -8.426000000
O     1.852000000    -1.714000000    -9.479000000
H     2.311000000    -1.512000000    -8.664000000
H     2.433000000    -2.320000000    -9.938000000
O     9.079000000    -1.259000000    -2.322000000
H     9.765000000    -0.592000000    -2.356000000
H     9.075000000    -1.553000000    -1.411000000
O     8.041000000    -0.297000000    -5.394000000
H     8.348000000    -0.949000000    -6.024000000
H     7.119000000    -0.514000000    -5.256000000
O     4.788000000    -4.427000000    -0.961000000
H     4.084000000    -4.215000000    -1.573000000
H     5.482000000    -3.800000000    -1.167000000
O     4.117000000    -1.565000000    -7.625000000
H     4.636000000    -0.940000000    -8.131000000
H     4.304000000    -1.348000000    -6.711000000
O     5.526000000    -7.050000000    -1.568000000
H     6.416000000    -7.209000000    -1.255000000
H     5.326000000    -6.159000000    -1.278000000
O     7.662000000    -4.889000000    -3.747000000
H     7.057000000    -4.516000000    -3.107000000
H     8.202000000    -4.150000000    -4.027000000
O     1.381000000    -3.827000000    -5.726000000
H     0.719000000    -3.435000000    -5.157000000
H     2.210000000    -3.663000000    -5.276000000
O     5.220000000    -0.562000000    -5.325000000
H     5.137000000     0.381000000    -5.178000000
H     4.699000000    -0.960000000    -4.627000000
O     3.614000000    -7.121000000     1.090000000
H     3.694000000    -7.894000000     0.530000000
H     2.983000000    -6.561000000     0.637000000
O     4.416000000    -6.575000000    -4.473000000
H     4.681000000    -7.395000000    -4.891000000
H     5.155000000    -6.345000000    -3.909000000
O     6.583000000    -2.682000000    -2.124000000
H     5.721000000    -2.289000000    -2.261000000
H     7.171000000    -1.935000000    -2.008000000
O     4.225000000    -3.737000000    -5.151000000
H     4.235000000    -3.164000000    -4.384000000
H     4.156000000    -4.620000000    -4.790000000
O     2.309000000    -6.228000000    -2.711000000
H     2.995000000    -6.596000000    -3.269000000
H     2.516000000    -5.295000000    -2.660000000
O     1.494000000    -6.111000000    -0.175000000
H     1.091000000    -5.257000000    -0.330000000
H     1.886000000    -6.348000000    -1.016000000
O     5.287000000    -4.108000000    -7.962000000
H     4.815000000    -3.985000000    -7.138000000
H     4.801000000    -3.583000000    -8.597000000
