215
-1460.65351
C    -2.110000000    -3.757000000     2.194000000
H    -2.885000000    -3.313000000     1.574000000
C    -1.465000000    -2.901000000     3.108000000
C    -0.327000000    -3.332000000     3.833000000
H     0.161000000    -2.576000000     4.443000000
C    -1.861000000    -1.416000000     3.074000000
O    -3.286000000    -1.369000000     2.951000000
H    -1.331000000    -0.867000000     2.282000000
O    -1.717000000    -0.802000000     4.381000000
C    -1.328000000     0.546000000     4.355000000
C    -0.016000000     0.767000000     4.630000000
H     0.664000000    -0.048000000     4.863000000
C     0.471000000     2.038000000     4.430000000
O     1.822000000     2.065000000     4.456000000
C    -0.296000000     3.105000000     3.964000000
C     0.347000000     4.399000000     3.583000000
H    -0.288000000     5.271000000     3.756000000
C     0.695000000     4.371000000     2.117000000
C    -0.169000000     4.875000000     1.121000000
H    -1.159000000     5.270000000     1.334000000
H     1.258000000     4.523000000     4.173000000
C    -1.648000000     2.890000000     3.892000000
H    -2.322000000     3.711000000     3.659000000
C    -2.223000000     1.632000000     4.077000000
C    -3.712000000     1.383000000     3.772000000
H    -4.319000000     2.200000000     4.168000000
H    -4.044000000     0.524000000     4.358000000
C    -3.928000000     0.962000000     2.319000000
C    -4.357000000     1.816000000     1.340000000
H    -4.425000000     2.871000000     1.592000000
C    -3.862000000    -0.422000000     2.079000000
C    -4.255000000    -0.852000000     0.805000000
H    -4.098000000    -1.904000000     0.577000000
C    -4.527000000     0.021000000    -0.253000000
O    -4.374000000    -0.530000000    -1.490000000
C    -3.326000000    -0.219000000    -2.386000000
C    -3.018000000    -1.465000000    -3.307000000
C    -2.239000000    -1.397000000    -4.487000000
H    -1.983000000    -0.389000000    -4.804000000
C    -3.403000000    -2.697000000    -2.883000000
H    -3.940000000    -2.850000000    -1.951000000
O    -3.752000000     0.851000000    -3.156000000
H    -2.447000000     0.142000000    -1.832000000
C    -4.599000000     1.388000000     0.037000000
C    -4.924000000     2.554000000    -0.920000000
H    -5.161000000     3.447000000    -0.337000000
H    -5.815000000     2.265000000    -1.481000000
C    -3.650000000     2.773000000    -1.695000000
C    -2.834000000     3.733000000    -1.229000000
H    -3.137000000     4.375000000    -0.405000000
C    -3.168000000     2.049000000    -2.806000000
C    -1.977000000     2.267000000    -3.435000000
H    -1.622000000     1.651000000    -4.257000000
C    -1.215000000     3.344000000    -2.975000000
O     0.070000000     3.476000000    -3.532000000
C     1.116000000     2.882000000    -2.728000000
C     2.123000000     2.284000000    -3.706000000
C     1.851000000     1.820000000    -4.942000000
H     0.805000000     1.920000000    -5.218000000
C     3.384000000     2.061000000    -3.143000000
H     3.552000000     2.372000000    -2.115000000
O     1.663000000     3.975000000    -1.863000000
H     0.698000000     2.046000000    -2.147000000
C    -1.645000000     4.068000000    -1.822000000
C    -0.852000000     5.218000000    -1.234000000
H    -1.494000000     5.953000000    -0.743000000
H    -0.317000000     5.761000000    -2.016000000
C     0.199000000     4.815000000    -0.194000000
C     1.292000000     4.006000000    -0.566000000
C     2.268000000     3.641000000     0.378000000
H     3.220000000     3.187000000     0.113000000
C     1.893000000     3.805000000     1.712000000
O     2.767000000     3.236000000     2.657000000
C     2.467000000     1.892000000     3.227000000
H     1.792000000     1.468000000     2.468000000
C     3.700000000     0.920000000     3.286000000
C     3.755000000    -0.085000000     4.266000000
H     2.989000000    -0.224000000     5.024000000
C     4.555000000     0.850000000     2.209000000
H     4.413000000     1.565000000     1.402000000
C     5.452000000    -0.226000000     2.100000000
O     6.276000000    -0.236000000     1.004000000
C     5.601000000    -1.166000000     3.115000000
H     6.403000000    -1.878000000     2.935000000
C     4.644000000    -1.179000000     4.105000000
O     4.745000000    -2.145000000     4.954000000
C     3.709000000    -2.798000000     5.514000000
C     2.996000000    -3.757000000     4.758000000
H     3.303000000    -3.962000000     3.736000000
C     3.282000000    -2.474000000     6.769000000
H     3.748000000    -1.650000000     7.303000000
C     2.218000000    -3.094000000     7.361000000
H     1.840000000    -2.721000000     8.309000000
C     1.491000000    -4.030000000     6.576000000
H     0.598000000    -4.534000000     6.936000000
C     1.871000000    -4.348000000     5.311000000
O     1.063000000    -5.169000000     4.588000000
C     0.079000000    -4.663000000     3.783000000
C    -0.598000000    -5.499000000     2.904000000
H    -0.263000000    -6.533000000     2.915000000
C    -1.758000000    -5.106000000     2.170000000
O    -2.270000000    -6.086000000     1.381000000
C    -3.321000000    -5.784000000     0.537000000
C    -3.009000000    -5.511000000    -0.804000000
H    -1.976000000    -5.647000000    -1.112000000
C    -4.688000000    -5.912000000     0.836000000
H    -4.934000000    -6.097000000     1.879000000
C    -5.677000000    -5.647000000    -0.091000000
H    -6.723000000    -5.835000000     0.138000000
C    -5.279000000    -5.283000000    -1.400000000
H    -6.035000000    -4.944000000    -2.104000000
C    -3.940000000    -5.259000000    -1.779000000
O    -3.597000000    -5.084000000    -3.066000000
C    -3.114000000    -3.851000000    -3.548000000
C    -2.320000000    -3.775000000    -4.678000000
H    -2.086000000    -4.695000000    -5.207000000
C    -1.920000000    -2.517000000    -5.193000000
O    -1.149000000    -2.455000000    -6.336000000
C    -0.659000000    -1.341000000    -6.895000000
C     0.651000000    -1.004000000    -6.693000000
H     1.296000000    -1.679000000    -6.137000000
C    -1.526000000    -0.503000000    -7.545000000
H    -2.515000000    -0.919000000    -7.722000000
C    -1.117000000     0.714000000    -8.053000000
H    -1.843000000     1.360000000    -8.540000000
C     0.200000000     1.008000000    -7.921000000
H     0.562000000     1.914000000    -8.402000000
C     1.116000000     0.176000000    -7.309000000
O     2.411000000     0.599000000    -6.939000000
C     2.761000000     1.193000000    -5.726000000
C     4.082000000     1.057000000    -5.239000000
H     4.876000000     0.671000000    -5.874000000
C     4.367000000     1.440000000    -3.928000000
O     5.615000000     1.147000000    -3.436000000
C     6.064000000     1.473000000    -2.199000000
C     6.557000000     2.718000000    -1.855000000
H     6.706000000     3.476000000    -2.620000000
C     6.898000000     3.016000000    -0.495000000
H     7.262000000     4.026000000    -0.327000000
C     6.886000000     2.048000000     0.481000000
H     7.118000000     2.285000000     1.516000000
C     6.452000000     0.763000000     0.047000000
C     6.126000000     0.502000000    -1.265000000
H     5.822000000    -0.512000000    -1.514000000
C    -0.631000000    -1.441000000    -0.593000000
H    -1.465000000    -2.096000000    -0.828000000
C    -0.838000000    -0.155000000    -0.022000000
H    -1.844000000     0.188000000     0.206000000
C     0.257000000     0.642000000     0.246000000
H     0.131000000     1.621000000     0.764000000
C     1.521000000     0.166000000    -0.001000000
H     2.429000000     0.742000000     0.160000000
C     1.728000000    -1.115000000    -0.552000000
H     2.756000000    -1.424000000    -0.723000000
C     0.665000000    -1.959000000    -0.737000000
C     0.894000000    -3.291000000    -1.301000000
O     2.065000000    -3.565000000    -1.501000000
O    -0.026000000    -4.085000000    -1.326000000
O    -2.116000000    -7.972000000    -3.209000000
H    -1.617000000    -7.180000000    -3.408000000
H    -1.963000000    -8.124000000    -2.276000000
O     5.986000000    -6.960000000    -3.598000000
H     5.498000000    -7.638000000    -3.131000000
H     5.452000000    -6.768000000    -4.368000000
O     3.644000000    -6.399000000    -4.955000000
H     2.977000000    -6.967000000    -5.340000000
H     3.317000000    -6.207000000    -4.077000000
O     4.168000000    -8.290000000    -1.949000000
H     3.537000000    -8.992000000    -2.106000000
H     3.650000000    -7.486000000    -1.998000000
O     0.836000000    -4.462000000    -5.629000000
H     0.181000000    -4.003000000    -6.156000000
H     1.403000000    -4.888000000    -6.271000000
O     5.258000000    -4.655000000    -6.104000000
H     4.674000000    -5.237000000    -5.618000000
H     5.689000000    -5.224000000    -6.741000000
O     6.602000000    -2.721000000    -0.678000000
H     7.229000000    -2.945000000     0.010000000
H     5.769000000    -2.619000000    -0.219000000
O     5.307000000    -2.069000000    -5.878000000
H     5.478000000    -1.932000000    -4.946000000
H     5.380000000    -3.016000000    -5.998000000
O     5.296000000    -6.291000000     2.456000000
H     4.388000000    -6.593000000     2.482000000
H     5.456000000    -6.095000000     1.533000000
O     5.736000000    -2.587000000    -3.251000000
H     5.930000000    -2.566000000    -2.314000000
H     4.832000000    -2.899000000    -3.301000000
O     2.384000000    -5.497000000    -7.604000000
H     2.265000000    -6.398000000    -7.306000000
H     2.980000000    -5.110000000    -6.963000000
O     3.112000000    -3.110000000    -3.791000000
H     2.775000000    -3.219000000    -2.902000000
H     2.795000000    -3.880000000    -4.264000000
O     2.513000000    -6.626000000     2.046000000
H     2.096000000    -7.136000000     2.741000000
H     1.829000000    -6.516000000     1.386000000
O     1.706000000    -7.663000000    -6.257000000
H     0.762000000    -7.541000000    -6.153000000
H     1.796000000    -8.553000000    -6.599000000
O    -0.161000000    -5.948000000    -3.401000000
H     0.059000000    -5.467000000    -4.199000000
H    -0.213000000    -5.274000000    -2.723000000
O     6.613000000    -5.979000000    -1.049000000
H     6.623000000    -6.336000000    -1.937000000
H     5.940000000    -5.300000000    -1.072000000
O     0.675000000    -6.347000000     0.123000000
H     0.487000000    -5.472000000    -0.215000000
H     0.013000000    -6.491000000     0.799000000
O     4.091000000    -4.762000000    -0.087000000
H     3.665000000    -5.415000000     0.468000000
H     3.378000000    -4.191000000    -0.375000000
O     2.772000000    -6.156000000    -2.432000000
H     2.989000000    -5.325000000    -2.010000000
H     1.837000000    -6.272000000    -2.266000000
