215
-1466.54108
C    -3.164000000    -3.768000000     1.137000000
H    -3.960000000    -3.246000000     0.612000000
C    -2.628000000    -3.123000000     2.244000000
C    -1.699000000    -3.872000000     3.034000000
H    -1.324000000    -3.456000000     3.966000000
C    -2.997000000    -1.722000000     2.560000000
O    -4.304000000    -1.365000000     2.116000000
H    -2.204000000    -1.191000000     2.013000000
O    -2.909000000    -1.458000000     3.958000000
C    -2.153000000    -0.371000000     4.219000000
C    -0.801000000    -0.515000000     4.540000000
H    -0.349000000    -1.503000000     4.570000000
C    -0.042000000     0.650000000     4.643000000
O     1.318000000     0.494000000     4.822000000
C    -0.582000000     1.887000000     4.515000000
C     0.287000000     3.141000000     4.580000000
H    -0.293000000     4.007000000     4.907000000
C     0.900000000     3.476000000     3.210000000
C     0.279000000     4.358000000     2.299000000
H    -0.636000000     4.902000000     2.521000000
H     1.032000000     2.970000000     5.359000000
C    -1.883000000     2.053000000     4.167000000
H    -2.316000000     3.035000000     3.993000000
C    -2.683000000     0.925000000     4.000000000
C    -4.102000000     1.085000000     3.473000000
H    -4.498000000     2.009000000     3.899000000
H    -4.783000000     0.330000000     3.872000000
C    -4.176000000     0.956000000     1.971000000
C    -4.109000000     2.143000000     1.191000000
H    -3.943000000     3.093000000     1.694000000
C    -4.337000000    -0.230000000     1.309000000
C    -4.348000000    -0.261000000    -0.070000000
H    -4.631000000    -1.180000000    -0.577000000
C    -4.259000000     0.886000000    -0.820000000
O    -4.261000000     0.803000000    -2.172000000
C    -2.937000000     1.006000000    -2.773000000
C    -2.667000000    -0.149000000    -3.828000000
C    -1.748000000     0.033000000    -4.849000000
H    -1.142000000     0.933000000    -4.908000000
C    -3.404000000    -1.327000000    -3.756000000
H    -4.098000000    -1.499000000    -2.937000000
O    -2.916000000     2.300000000    -3.305000000
H    -2.091000000     0.980000000    -2.071000000
C    -4.183000000     2.119000000    -0.200000000
C    -4.146000000     3.467000000    -0.982000000
H    -4.494000000     4.173000000    -0.225000000
H    -4.937000000     3.402000000    -1.733000000
C    -2.752000000     3.854000000    -1.437000000
C    -1.953000000     4.566000000    -0.551000000
H    -2.310000000     4.927000000     0.410000000
C    -2.283000000     3.292000000    -2.591000000
C    -0.963000000     3.628000000    -2.980000000
H    -0.451000000     3.238000000    -3.856000000
C    -0.188000000     4.459000000    -2.141000000
O     1.162000000     4.529000000    -2.425000000
C     1.932000000     3.484000000    -1.749000000
C     2.957000000     2.796000000    -2.698000000
C     2.623000000     2.521000000    -4.008000000
H     1.718000000     2.926000000    -4.454000000
C     4.050000000     2.206000000    -2.162000000
H     4.235000000     2.389000000    -1.107000000
O     2.541000000     4.055000000    -0.614000000
H     1.305000000     2.640000000    -1.428000000
C    -0.679000000     4.881000000    -0.936000000
C     0.230000000     5.615000000     0.080000000
H    -0.184000000     6.451000000     0.648000000
H     1.049000000     6.036000000    -0.506000000
C     0.843000000     4.623000000     1.051000000
C     1.934000000     3.879000000     0.647000000
C     2.607000000     3.060000000     1.591000000
H     3.476000000     2.456000000     1.344000000
C     2.108000000     2.855000000     2.855000000
O     2.674000000     1.882000000     3.647000000
C     2.140000000     0.567000000     3.619000000
H     1.569000000     0.391000000     2.695000000
C     3.166000000    -0.576000000     3.546000000
C     3.017000000    -1.784000000     4.247000000
H     2.171000000    -1.907000000     4.919000000
C     4.345000000    -0.393000000     2.844000000
H     4.475000000     0.576000000     2.367000000
C     5.253000000    -1.430000000     2.639000000
O     6.405000000    -1.300000000     1.811000000
C     4.976000000    -2.662000000     3.268000000
H     5.613000000    -3.535000000     3.152000000
C     3.865000000    -2.798000000     4.075000000
O     3.670000000    -3.903000000     4.857000000
C     2.436000000    -4.454000000     5.164000000
C     1.575000000    -4.767000000     4.063000000
H     1.931000000    -4.786000000     3.036000000
C     1.992000000    -4.545000000     6.440000000
H     2.538000000    -4.365000000     7.362000000
C     0.624000000    -4.951000000     6.720000000
H     0.380000000    -5.198000000     7.750000000
C    -0.138000000    -5.433000000     5.650000000
H    -1.125000000    -5.856000000     5.822000000
C     0.285000000    -5.273000000     4.374000000
O    -0.415000000    -5.886000000     3.422000000
C    -1.359000000    -5.184000000     2.736000000
C    -1.974000000    -5.827000000     1.676000000
H    -1.709000000    -6.799000000     1.269000000
C    -2.820000000    -5.117000000     0.858000000
O    -3.331000000    -5.744000000    -0.218000000
C    -4.045000000    -5.079000000    -1.156000000
C    -3.504000000    -4.541000000    -2.279000000
H    -2.426000000    -4.517000000    -2.420000000
C    -5.431000000    -5.053000000    -1.032000000
H    -5.784000000    -5.565000000    -0.142000000
C    -6.232000000    -4.425000000    -1.968000000
H    -7.310000000    -4.346000000    -1.853000000
C    -5.673000000    -3.954000000    -3.122000000
H    -6.366000000    -3.404000000    -3.754000000
C    -4.323000000    -4.031000000    -3.303000000
O    -3.736000000    -3.537000000    -4.446000000
C    -3.145000000    -2.352000000    -4.593000000
C    -2.194000000    -2.234000000    -5.623000000
H    -2.036000000    -3.063000000    -6.308000000
C    -1.529000000    -1.020000000    -5.805000000
O    -0.591000000    -0.918000000    -6.853000000
C     0.114000000     0.212000000    -7.098000000
C     1.407000000     0.275000000    -6.589000000
H     1.760000000    -0.500000000    -5.914000000
C    -0.374000000     1.190000000    -7.919000000
H    -1.321000000     1.135000000    -8.449000000
C     0.410000000     2.386000000    -8.182000000
H     0.055000000     3.217000000    -8.786000000
C     1.668000000     2.513000000    -7.594000000
H     2.301000000     3.373000000    -7.797000000
C     2.147000000     1.458000000    -6.814000000
O     3.349000000     1.722000000    -6.142000000
C     3.517000000     1.831000000    -4.808000000
C     4.690000000     1.283000000    -4.283000000
H     5.421000000     0.669000000    -4.803000000
C     4.955000000     1.444000000    -2.921000000
O     6.095000000     0.814000000    -2.464000000
C     6.494000000     0.809000000    -1.122000000
C     7.435000000     1.757000000    -0.705000000
H     7.789000000     2.507000000    -1.407000000
C     8.010000000     1.727000000     0.571000000
H     8.823000000     2.400000000     0.828000000
C     7.641000000     0.698000000     1.424000000
H     8.136000000     0.705000000     2.392000000
C     6.612000000    -0.209000000     1.016000000
C     6.001000000    -0.132000000    -0.248000000
H     5.254000000    -0.863000000    -0.545000000
C     0.403000000    -2.339000000    -0.088000000
H    -0.310000000    -3.156000000    -0.158000000
C     0.020000000    -1.068000000    -0.263000000
H    -1.042000000    -0.881000000    -0.405000000
C     0.928000000    -0.067000000     0.052000000
H     0.553000000     0.916000000     0.052000000
C     2.258000000    -0.363000000     0.390000000
H     2.971000000     0.456000000     0.441000000
C     2.666000000    -1.676000000     0.375000000
H     3.658000000    -2.029000000     0.648000000
C     1.716000000    -2.661000000     0.146000000
C     2.135000000    -4.122000000     0.319000000
O     3.287000000    -4.486000000     0.475000000
O     1.280000000    -4.993000000     0.249000000
O    -2.300000000    -8.532000000    -1.932000000
H    -2.230000000    -7.722000000    -1.426000000
H    -1.810000000    -8.355000000    -2.735000000
O     2.817000000    -8.401000000    -1.060000000
H     3.026000000    -7.509000000    -1.337000000
H     2.491000000    -8.304000000    -0.165000000
O     4.886000000    -7.854000000    -3.482000000
H     4.617000000    -7.513000000    -2.629000000
H     5.193000000    -7.084000000    -3.961000000
O     3.493000000    -7.755000000     3.775000000
H     2.891000000    -8.063000000     4.452000000
H     2.981000000    -7.782000000     2.967000000
O     1.877000000    -7.336000000     1.466000000
H     1.940000000    -6.508000000     0.989000000
H     1.004000000    -7.666000000     1.258000000
O     6.286000000    -2.715000000    -3.464000000
H     7.144000000    -2.419000000    -3.160000000
H     5.856000000    -3.051000000    -2.678000000
O     6.712000000    -7.600000000     1.028000000
H     6.762000000    -7.328000000     0.112000000
H     6.113000000    -6.974000000     1.432000000
O     5.829000000    -3.706000000    -0.816000000
H     6.506000000    -3.780000000    -0.143000000
H     5.011000000    -3.889000000    -0.353000000
O     4.313000000    -1.995000000    -5.325000000
H     3.974000000    -1.457000000    -4.609000000
H     5.130000000    -2.359000000    -4.984000000
O    -0.211000000    -8.446000000     0.345000000
H    -1.112000000    -8.768000000     0.378000000
H    -0.184000000    -7.893000000    -0.436000000
O    -0.216000000    -6.192000000    -1.483000000
H    -0.190000000    -5.753000000    -2.333000000
H     0.444000000    -5.739000000    -0.959000000
O     0.910000000   -10.187000000     2.363000000
H     0.695000000    -9.430000000     1.817000000
H     0.470000000   -10.015000000     3.195000000
O     8.272000000    -4.745000000    -2.392000000
H     7.470000000    -5.177000000    -2.100000000
H     8.203000000    -3.854000000    -2.048000000
O     3.702000000    -5.955000000    -1.811000000
H     3.456000000    -5.285000000    -2.449000000
H     3.632000000    -5.516000000    -0.963000000
O     4.752000000    -6.021000000     2.050000000
H     4.074000000    -5.502000000     1.619000000
H     4.277000000    -6.558000000     2.684000000
O     1.335000000    -8.992000000    -3.946000000
H     1.966000000    -8.596000000    -3.345000000
H     1.356000000    -9.926000000    -3.735000000
O     0.012000000    -5.024000000    -3.865000000
H     0.172000000    -4.395000000    -4.569000000
H    -0.137000000    -5.855000000    -4.316000000
O     2.887000000    -1.076000000    -2.910000000
H     2.201000000    -0.422000000    -2.775000000
H     2.958000000    -1.525000000    -2.068000000
O     4.331000000    -9.792000000     0.772000000
H     4.826000000    -9.071000000     1.162000000
H     3.796000000    -9.377000000     0.096000000
