215
-1444.69960
C    -3.598000000    -3.891000000     1.718000000
H    -4.457000000    -3.338000000     1.349000000
C    -2.581000000    -3.327000000     2.487000000
C    -1.500000000    -4.157000000     2.960000000
H    -0.772000000    -3.815000000     3.691000000
C    -2.698000000    -1.864000000     2.888000000
O    -4.063000000    -1.273000000     2.829000000
H    -2.118000000    -1.304000000     2.140000000
O    -2.235000000    -1.672000000     4.144000000
C    -1.460000000    -0.608000000     4.363000000
C    -0.080000000    -0.710000000     4.445000000
H     0.243000000    -1.722000000     4.214000000
C     0.770000000     0.359000000     4.528000000
O     2.125000000     0.120000000     4.371000000
C     0.163000000     1.636000000     4.467000000
C     1.108000000     2.839000000     4.589000000
H     0.642000000     3.675000000     5.115000000
C     1.562000000     3.215000000     3.208000000
C     0.788000000     4.047000000     2.469000000
H    -0.155000000     4.433000000     2.848000000
H     2.044000000     2.635000000     5.114000000
C    -1.186000000     1.792000000     4.456000000
H    -1.622000000     2.788000000     4.447000000
C    -2.007000000     0.711000000     4.398000000
C    -3.517000000     1.067000000     4.336000000
H    -3.694000000     1.996000000     4.882000000
H    -4.044000000     0.273000000     4.869000000
C    -4.025000000     1.089000000     2.841000000
C    -3.816000000     2.280000000     2.104000000
H    -3.593000000     3.181000000     2.670000000
C    -4.230000000    -0.097000000     2.179000000
C    -4.457000000    -0.110000000     0.828000000
H    -4.683000000    -1.051000000     0.332000000
C    -4.461000000     1.076000000     0.134000000
O    -4.569000000     0.948000000    -1.229000000
C    -3.483000000     1.090000000    -2.072000000
C    -3.404000000     0.017000000    -3.153000000
C    -2.542000000     0.266000000    -4.259000000
H    -1.937000000     1.162000000    -4.365000000
C    -4.040000000    -1.187000000    -2.997000000
H    -4.529000000    -1.381000000    -2.046000000
O    -3.321000000     2.389000000    -2.603000000
H    -2.627000000     0.822000000    -1.435000000
C    -4.204000000     2.318000000     0.740000000
C    -4.219000000     3.639000000    -0.033000000
H    -4.536000000     4.384000000     0.700000000
H    -5.039000000     3.616000000    -0.754000000
C    -2.868000000     3.934000000    -0.621000000
C    -1.934000000     4.654000000     0.073000000
H    -2.112000000     5.077000000     1.059000000
C    -2.578000000     3.367000000    -1.905000000
C    -1.309000000     3.512000000    -2.366000000
H    -0.978000000     3.146000000    -3.334000000
C    -0.358000000     4.271000000    -1.721000000
O     0.900000000     4.285000000    -2.222000000
C     1.910000000     3.387000000    -1.709000000
C     2.821000000     2.827000000    -2.785000000
C     2.385000000     2.824000000    -4.126000000
H     1.482000000     3.368000000    -4.393000000
C     4.001000000     2.107000000    -2.420000000
H     4.232000000     2.009000000    -1.362000000
O     2.697000000     4.076000000    -0.668000000
H     1.398000000     2.484000000    -1.345000000
C    -0.610000000     4.794000000    -0.459000000
C     0.410000000     5.416000000     0.326000000
H    -0.119000000     6.186000000     0.892000000
H     1.103000000     5.889000000    -0.373000000
C     1.236000000     4.468000000     1.191000000
C     2.431000000     3.912000000     0.641000000
C     3.147000000     2.974000000     1.342000000
H     3.921000000     2.364000000     0.882000000
C     2.768000000     2.720000000     2.685000000
O     3.455000000     1.664000000     3.300000000
C     2.771000000     0.428000000     3.131000000
H     1.977000000     0.490000000     2.372000000
C     3.775000000    -0.610000000     2.729000000
C     3.448000000    -1.910000000     2.999000000
H     2.456000000    -2.195000000     3.341000000
C     4.962000000    -0.283000000     2.066000000
H     5.249000000     0.720000000     1.760000000
C     5.836000000    -1.278000000     1.668000000
O     7.046000000    -1.066000000     1.112000000
C     5.465000000    -2.598000000     1.884000000
H     6.044000000    -3.400000000     1.432000000
C     4.250000000    -2.925000000     2.472000000
O     3.838000000    -4.260000000     2.391000000
C     2.818000000    -4.724000000     3.222000000
C     1.630000000    -5.177000000     2.625000000
H     1.353000000    -4.941000000     1.601000000
C     3.168000000    -5.131000000     4.551000000
H     4.211000000    -5.018000000     4.837000000
C     2.275000000    -5.749000000     5.408000000
H     2.607000000    -5.939000000     6.425000000
C     1.085000000    -6.132000000     4.793000000
H     0.370000000    -6.594000000     5.469000000
C     0.730000000    -5.950000000     3.412000000
O    -0.489000000    -6.378000000     2.931000000
C    -1.448000000    -5.503000000     2.484000000
C    -2.521000000    -6.078000000     1.817000000
H    -2.509000000    -7.155000000     1.670000000
C    -3.556000000    -5.268000000     1.366000000
O    -4.469000000    -5.756000000     0.419000000
C    -5.100000000    -5.001000000    -0.572000000
C    -4.327000000    -4.718000000    -1.668000000
H    -3.300000000    -5.054000000    -1.784000000
C    -6.446000000    -4.641000000    -0.503000000
H    -7.046000000    -4.931000000     0.356000000
C    -7.026000000    -3.946000000    -1.528000000
H    -8.028000000    -3.527000000    -1.580000000
C    -6.234000000    -3.572000000    -2.636000000
H    -6.656000000    -2.985000000    -3.448000000
C    -4.919000000    -3.973000000    -2.729000000
O    -4.187000000    -3.580000000    -3.789000000
C    -3.827000000    -2.272000000    -3.962000000
C    -2.982000000    -1.956000000    -5.102000000
H    -2.862000000    -2.712000000    -5.874000000
C    -2.274000000    -0.747000000    -5.208000000
O    -1.333000000    -0.622000000    -6.134000000
C    -0.787000000     0.609000000    -6.552000000
C     0.627000000     0.753000000    -6.383000000
H     1.343000000     0.028000000    -6.004000000
C    -1.538000000     1.677000000    -7.035000000
H    -2.604000000     1.498000000    -6.919000000
C    -0.978000000     2.909000000    -7.385000000
H    -1.515000000     3.783000000    -7.743000000
C     0.426000000     3.041000000    -7.210000000
H     0.900000000     3.947000000    -7.578000000
C     1.216000000     2.002000000    -6.644000000
O     2.553000000     2.170000000    -6.384000000
C     3.071000000     2.132000000    -5.102000000
C     4.304000000     1.598000000    -4.798000000
H     4.998000000     1.201000000    -5.534000000
C     4.750000000     1.494000000    -3.450000000
O     5.857000000     0.767000000    -3.218000000
C     6.491000000     0.839000000    -1.979000000
C     7.314000000     1.970000000    -1.672000000
H     7.336000000     2.723000000    -2.455000000
C     8.171000000     1.993000000    -0.598000000
H     8.800000000     2.859000000    -0.412000000
C     8.099000000     0.957000000     0.342000000
H     8.669000000     1.016000000     1.265000000
C     7.213000000    -0.147000000     0.116000000
C     6.375000000    -0.190000000    -1.043000000
H     5.713000000    -1.013000000    -1.299000000
C    -0.662000000    -2.720000000    -0.468000000
H    -1.387000000    -3.528000000    -0.525000000
C    -0.893000000    -1.400000000    -0.214000000
H    -1.876000000    -1.030000000     0.063000000
C     0.197000000    -0.564000000    -0.152000000
H     0.053000000     0.520000000     0.197000000
C     1.461000000    -0.927000000    -0.554000000
H     2.272000000    -0.209000000    -0.655000000
C     1.651000000    -2.265000000    -0.951000000
H     2.627000000    -2.481000000    -1.380000000
C     0.617000000    -3.112000000    -0.895000000
C     0.858000000    -4.582000000    -1.224000000
O     1.856000000    -5.101000000    -1.643000000
O    -0.068000000    -5.344000000    -1.184000000
O     0.266000000    -7.907000000    -4.088000000
H    -0.461000000    -8.044000000    -3.479000000
H    -0.144000000    -7.897000000    -4.952000000
O     4.091000000    -7.892000000    -4.594000000
H     3.483000000    -7.592000000    -3.918000000
H     3.581000000    -8.510000000    -5.118000000
O     2.090000000    -7.725000000    -2.340000000
H     1.962000000    -6.928000000    -1.826000000
H     1.295000000    -7.800000000    -2.868000000
O    -1.582000000    -9.646000000    -0.376000000
H    -1.119000000    -8.959000000     0.103000000
H    -2.019000000   -10.160000000     0.304000000
O     5.585000000    -7.085000000    -0.819000000
H     4.937000000    -7.655000000    -0.405000000
H     6.240000000    -7.686000000    -1.175000000
O     3.098000000    -8.280000000     0.239000000
H     3.011000000    -8.390000000    -0.707000000
H     2.206000000    -8.117000000     0.545000000
O     5.229000000    -2.960000000    -4.411000000
H     4.904000000    -3.840000000    -4.220000000
H     6.014000000    -2.872000000    -3.870000000
O     4.619000000    -5.082000000    -2.422000000
H     4.994000000    -5.802000000    -1.914000000
H     3.705000000    -5.041000000    -2.141000000
O     2.659000000    -4.508000000    -4.378000000
H     1.724000000    -4.326000000    -4.285000000
H     2.899000000    -4.950000000    -3.563000000
O     0.069000000    -2.856000000    -4.450000000
H    -0.259000000    -2.197000000    -5.061000000
H     0.226000000    -2.373000000    -3.638000000
O    -1.578000000    -5.175000000    -3.760000000
H    -1.181000000    -4.418000000    -4.191000000
H    -1.039000000    -5.317000000    -2.982000000
O     7.303000000    -3.458000000    -2.681000000
H     8.059000000    -3.998000000    -2.448000000
H     6.636000000    -3.689000000    -2.034000000
O     6.323000000    -6.103000000    -4.308000000
H     5.941000000    -5.531000000    -3.641000000
H     5.790000000    -6.897000000    -4.276000000
O     0.558000000    -0.105000000    -3.109000000
H     1.364000000    -0.243000000    -3.606000000
H     0.738000000    -0.488000000    -2.250000000
O     0.169000000    -7.491000000     0.501000000
H     0.004000000    -6.967000000    -0.283000000
H     0.142000000    -6.860000000     1.220000000
O    -4.074000000    -6.418000000    -5.099000000
H    -4.948000000    -6.216000000    -4.765000000
H    -3.516000000    -5.726000000    -4.744000000
O     3.884000000    -4.693000000    -7.086000000
H     3.879000000    -3.736000000    -7.067000000
H     3.559000000    -4.952000000    -6.223000000
O     2.956000000    -1.303000000    -4.389000000
H     3.809000000    -1.460000000    -3.985000000
H     2.913000000    -1.932000000    -5.109000000
O     0.442000000    -4.436000000    -6.930000000
H     0.623000000    -4.096000000    -6.054000000
H     0.127000000    -5.328000000    -6.780000000
