215
-1497.05034
C    -4.135000000    -3.272000000     1.441000000
H    -5.028000000    -2.725000000     1.150000000
C    -3.080000000    -2.636000000     2.099000000
C    -1.984000000    -3.411000000     2.439000000
H    -1.188000000    -2.987000000     3.046000000
C    -3.052000000    -1.177000000     2.515000000
O    -4.410000000    -0.553000000     2.419000000
H    -2.377000000    -0.639000000     1.833000000
O    -2.665000000    -1.002000000     3.852000000
C    -1.845000000     0.015000000     4.197000000
C    -0.504000000    -0.274000000     4.476000000
H    -0.119000000    -1.290000000     4.444000000
C     0.368000000     0.725000000     4.680000000
O     1.699000000     0.394000000     4.667000000
C     0.005000000     2.065000000     4.483000000
C     0.972000000     3.255000000     4.632000000
H     0.422000000     4.110000000     5.031000000
C     1.660000000     3.600000000     3.292000000
C     1.074000000     4.509000000     2.426000000
H     0.224000000     5.088000000     2.779000000
H     1.717000000     3.013000000     5.393000000
C    -1.342000000     2.380000000     4.309000000
H    -1.553000000     3.420000000     4.075000000
C    -2.297000000     1.382000000     4.160000000
C    -3.698000000     1.878000000     3.771000000
H    -3.912000000     2.884000000     4.140000000
H    -4.402000000     1.304000000     4.376000000
C    -3.966000000     1.831000000     2.234000000
C    -3.841000000     2.924000000     1.360000000
H    -3.478000000     3.842000000     1.816000000
C    -4.400000000     0.638000000     1.669000000
C    -4.575000000     0.491000000     0.298000000
H    -4.907000000    -0.422000000    -0.189000000
C    -4.391000000     1.589000000    -0.528000000
O    -4.342000000     1.327000000    -1.925000000
C    -3.058000000     1.236000000    -2.625000000
C    -3.177000000     0.151000000    -3.630000000
C    -2.496000000     0.256000000    -4.874000000
H    -2.014000000     1.166000000    -5.223000000
C    -3.790000000    -1.048000000    -3.350000000
H    -4.332000000    -1.177000000    -2.417000000
O    -2.794000000     2.566000000    -3.132000000
H    -2.281000000     1.071000000    -1.865000000
C    -4.174000000     2.873000000     0.013000000
C    -4.038000000     4.085000000    -0.932000000
H    -4.345000000     4.968000000    -0.368000000
H    -4.642000000     4.050000000    -1.841000000
C    -2.469000000     4.164000000    -1.229000000
C    -1.557000000     4.764000000    -0.343000000
H    -1.979000000     5.181000000     0.567000000
C    -1.973000000     3.448000000    -2.366000000
C    -0.604000000     3.389000000    -2.626000000
H    -0.172000000     2.738000000    -3.382000000
C     0.245000000     4.099000000    -1.810000000
O     1.586000000     4.042000000    -2.231000000
C     2.381000000     3.053000000    -1.504000000
C     3.180000000     2.149000000    -2.470000000
C     2.589000000     1.405000000    -3.448000000
H     1.521000000     1.540000000    -3.600000000
C     4.522000000     1.879000000    -2.237000000
H     5.182000000     2.468000000    -1.607000000
O     3.199000000     3.805000000    -0.551000000
H     1.652000000     2.414000000    -0.984000000
C    -0.175000000     4.821000000    -0.679000000
C     0.827000000     5.523000000     0.169000000
H     0.307000000     6.361000000     0.638000000
H     1.651000000     6.031000000    -0.336000000
C     1.506000000     4.570000000     1.107000000
C     2.592000000     3.849000000     0.723000000
C     3.261000000     2.966000000     1.626000000
H     4.110000000     2.388000000     1.268000000
C     2.765000000     2.883000000     2.958000000
O     3.208000000     1.817000000     3.692000000
C     2.465000000     0.620000000     3.507000000
H     1.852000000     0.691000000     2.597000000
C     3.424000000    -0.641000000     3.343000000
C     3.109000000    -1.941000000     3.834000000
H     2.281000000    -2.104000000     4.520000000
C     4.630000000    -0.533000000     2.575000000
H     4.911000000     0.433000000     2.162000000
C     5.488000000    -1.637000000     2.444000000
O     6.720000000    -1.487000000     1.773000000
C     5.099000000    -2.914000000     2.877000000
H     5.678000000    -3.820000000     2.716000000
C     3.903000000    -3.062000000     3.548000000
O     3.501000000    -4.259000000     4.112000000
C     2.213000000    -4.661000000     4.399000000
C     1.389000000    -4.860000000     3.312000000
H     1.839000000    -4.761000000     2.327000000
C     1.702000000    -4.718000000     5.728000000
H     2.311000000    -4.503000000     6.602000000
C     0.342000000    -5.013000000     5.879000000
H    -0.179000000    -4.943000000     6.830000000
C    -0.438000000    -5.322000000     4.790000000
H    -1.514000000    -5.426000000     4.908000000
C     0.024000000    -5.235000000     3.507000000
O    -0.829000000    -5.487000000     2.419000000
C    -1.861000000    -4.757000000     2.051000000
C    -2.779000000    -5.305000000     1.172000000
H    -2.571000000    -6.268000000     0.714000000
C    -3.988000000    -4.593000000     0.967000000
O    -4.935000000    -5.238000000     0.246000000
C    -5.499000000    -4.697000000    -0.893000000
C    -4.655000000    -4.136000000    -1.865000000
H    -3.573000000    -4.103000000    -1.758000000
C    -6.809000000    -4.952000000    -1.157000000
H    -7.400000000    -5.452000000    -0.393000000
C    -7.432000000    -4.480000000    -2.306000000
H    -8.462000000    -4.694000000    -2.581000000
C    -6.628000000    -3.887000000    -3.279000000
H    -7.022000000    -3.524000000    -4.225000000
C    -5.222000000    -3.711000000    -3.092000000
O    -4.333000000    -3.375000000    -4.136000000
C    -3.731000000    -2.089000000    -4.269000000
C    -3.119000000    -1.982000000    -5.474000000
H    -3.153000000    -2.806000000    -6.182000000
C    -2.440000000    -0.763000000    -5.825000000
O    -1.748000000    -0.628000000    -7.014000000
C    -0.504000000    -0.078000000    -6.927000000
C     0.451000000    -0.599000000    -6.088000000
H     0.370000000    -1.501000000    -5.487000000
C    -0.214000000     1.045000000    -7.759000000
H    -1.048000000     1.378000000    -8.372000000
C     1.055000000     1.593000000    -7.806000000
H     1.389000000     2.403000000    -8.449000000
C     2.006000000     1.013000000    -6.904000000
H     2.994000000     1.447000000    -6.775000000
C     1.680000000     0.016000000    -5.950000000
O     2.604000000    -0.445000000    -5.083000000
C     3.253000000     0.369000000    -4.148000000
C     4.580000000     0.167000000    -3.893000000
H     5.051000000    -0.676000000    -4.391000000
C     5.223000000     0.892000000    -2.881000000
O     6.537000000     0.717000000    -2.590000000
C     7.082000000     0.631000000    -1.317000000
C     8.348000000     1.230000000    -1.001000000
H     8.781000000     1.971000000    -1.668000000
C     8.862000000     1.016000000     0.277000000
H     9.758000000     1.530000000     0.613000000
C     8.331000000     0.134000000     1.174000000
H     8.941000000    -0.118000000     2.038000000
C     7.093000000    -0.440000000     0.926000000
C     6.481000000    -0.224000000    -0.329000000
H     5.538000000    -0.684000000    -0.610000000
C    -0.434000000    -2.324000000    -0.523000000
H    -1.053000000    -3.214000000    -0.596000000
C    -1.074000000    -1.065000000    -0.517000000
H    -2.158000000    -1.043000000    -0.595000000
C    -0.331000000     0.093000000    -0.253000000
H    -0.788000000     1.105000000    -0.335000000
C     1.045000000    -0.008000000     0.017000000
H     1.556000000     0.884000000     0.371000000
C     1.657000000    -1.206000000    -0.044000000
H     2.720000000    -1.177000000     0.178000000
C     0.928000000    -2.405000000    -0.331000000
C     1.586000000    -3.749000000    -0.501000000
O     2.801000000    -3.854000000    -0.508000000
O     0.852000000    -4.745000000    -0.660000000
O    -3.174000000    -7.943000000    -1.251000000
H    -3.146000000    -6.991000000    -1.156000000
H    -2.935000000    -8.100000000    -2.164000000
O     0.266000000    -6.846000000    -4.299000000
H     1.025000000    -6.385000000    -3.942000000
H    -0.321000000    -6.150000000    -4.593000000
O    -2.646000000    -7.555000000     3.375000000
H    -3.552000000    -7.247000000     3.360000000
H    -2.220000000    -7.080000000     2.661000000
O     4.454000000    -7.562000000    -3.461000000
H     4.285000000    -8.016000000    -4.286000000
H     3.782000000    -6.881000000    -3.420000000
O     4.039000000    -7.471000000     2.454000000
H     3.308000000    -7.432000000     3.071000000
H     3.636000000    -7.335000000     1.597000000
O     1.540000000    -6.956000000     0.803000000
H     1.310000000    -6.180000000     0.292000000
H     0.708000000    -7.413000000     0.932000000
O     6.922000000    -3.248000000    -2.667000000
H     7.320000000    -2.379000000    -2.714000000
H     6.307000000    -3.190000000    -1.935000000
O     5.254000000    -2.953000000    -0.579000000
H     5.719000000    -3.569000000    -0.013000000
H     4.333000000    -3.204000000    -0.500000000
O     5.155000000    -3.595000000    -5.738000000
H     4.594000000    -3.289000000    -5.025000000
H     5.601000000    -4.363000000    -5.379000000
O    -0.233000000    -8.277000000    -1.884000000
H    -1.063000000    -7.893000000    -1.600000000
H    -0.077000000    -7.897000000    -2.749000000
O    -1.440000000    -5.812000000    -1.437000000
H    -1.380000000    -5.428000000    -2.312000000
H    -0.678000000    -5.469000000    -0.972000000
O     7.103000000    -5.945000000     0.760000000
H     6.333000000    -5.833000000     0.203000000
H     7.338000000    -6.867000000     0.661000000
O     2.147000000    -5.464000000    -3.058000000
H     2.692000000    -4.687000000    -3.185000000
H     1.725000000    -5.325000000    -2.211000000
O     4.465000000    -6.035000000    -0.468000000
H     3.802000000    -5.347000000    -0.401000000
H     4.237000000    -6.509000000    -1.268000000
O    -2.022000000    -4.922000000    -3.910000000
H    -2.267000000    -4.113000000    -4.361000000
H    -2.803000000    -5.472000000    -3.964000000
O     3.788000000    -3.202000000    -3.306000000
H     3.299000000    -2.388000000    -3.424000000
H     3.962000000    -3.243000000    -2.365000000
O     2.371000000    -8.856000000    -1.336000000
H     2.465000000    -8.380000000    -0.511000000
H     1.487000000    -8.643000000    -1.636000000
O    -0.704000000    -8.827000000     1.220000000
H    -0.966000000    -9.190000000     0.374000000
H    -1.373000000    -9.136000000     1.831000000
O     6.700000000    -5.467000000    -4.310000000
H     6.642000000    -4.746000000    -3.683000000
H     6.211000000    -6.180000000    -3.899000000
