215
-1456.56140
C    -3.735000000    -2.765000000     2.462000000
H    -4.550000000    -2.092000000     2.207000000
C    -2.611000000    -2.283000000     3.152000000
C    -1.696000000    -3.180000000     3.637000000
H    -0.744000000    -2.880000000     4.066000000
C    -2.360000000    -0.761000000     3.339000000
O    -3.630000000     0.011000000     3.320000000
H    -1.662000000    -0.475000000     2.538000000
O    -1.654000000    -0.445000000     4.489000000
C    -0.586000000     0.410000000     4.410000000
C     0.705000000    -0.139000000     4.251000000
H     0.915000000    -1.206000000     4.253000000
C     1.791000000     0.708000000     4.115000000
O     3.047000000     0.127000000     3.924000000
C     1.577000000     2.112000000     3.958000000
C     2.754000000     3.025000000     3.708000000
H     2.504000000     4.011000000     4.105000000
C     2.915000000     3.117000000     2.209000000
C     2.220000000     4.071000000     1.496000000
H     1.632000000     4.796000000     2.054000000
H     3.671000000     2.758000000     4.238000000
C     0.286000000     2.636000000     4.086000000
H     0.210000000     3.719000000     4.038000000
C    -0.826000000     1.796000000     4.344000000
C    -2.212000000     2.394000000     4.445000000
H    -2.080000000     3.415000000     4.810000000
H    -2.760000000     1.809000000     5.186000000
C    -2.945000000     2.342000000     3.158000000
C    -2.793000000     3.427000000     2.290000000
H    -2.369000000     4.349000000     2.680000000
C    -3.597000000     1.216000000     2.676000000
C    -4.248000000     1.211000000     1.428000000
H    -4.849000000     0.372000000     1.084000000
C    -4.142000000     2.312000000     0.616000000
O    -4.540000000     2.189000000    -0.638000000
C    -3.634000000     1.934000000    -1.723000000
C    -3.970000000     0.674000000    -2.586000000
C    -3.673000000     0.687000000    -3.934000000
H    -3.159000000     1.537000000    -4.376000000
C    -4.770000000    -0.417000000    -2.077000000
H    -5.049000000    -0.441000000    -1.027000000
O    -3.341000000     3.144000000    -2.400000000
H    -2.711000000     1.580000000    -1.240000000
C    -3.293000000     3.384000000     1.028000000
C    -3.280000000     4.625000000     0.133000000
H    -3.321000000     5.585000000     0.650000000
H    -4.189000000     4.684000000    -0.470000000
C    -2.080000000     4.438000000    -0.792000000
C    -0.767000000     4.870000000    -0.343000000
H    -0.746000000     5.413000000     0.598000000
C    -2.199000000     3.872000000    -2.042000000
C    -1.027000000     3.688000000    -2.791000000
H    -1.016000000     3.207000000    -3.766000000
C     0.229000000     4.183000000    -2.398000000
O     1.286000000     3.641000000    -3.100000000
C     2.234000000     2.669000000    -2.601000000
C     2.672000000     1.621000000    -3.622000000
C     1.741000000     0.940000000    -4.391000000
H     0.690000000     1.209000000    -4.327000000
C     3.997000000     1.228000000    -3.643000000
H     4.730000000     1.610000000    -2.937000000
O     3.315000000     3.356000000    -1.976000000
H     1.669000000     2.102000000    -1.847000000
C     0.364000000     4.709000000    -1.097000000
C     1.656000000     5.275000000    -0.601000000
H     1.441000000     6.177000000    -0.023000000
H     2.264000000     5.651000000    -1.426000000
C     2.358000000     4.097000000     0.113000000
C     3.288000000     3.354000000    -0.575000000
C     3.931000000     2.372000000     0.126000000
H     4.612000000     1.650000000    -0.319000000
C     3.648000000     2.224000000     1.510000000
O     4.164000000     1.115000000     2.124000000
C     3.361000000     0.037000000     2.536000000
H     2.425000000     0.139000000     1.968000000
C     3.854000000    -1.355000000     2.091000000
C     3.531000000    -2.480000000     2.837000000
H     3.033000000    -2.269000000     3.779000000
C     4.745000000    -1.481000000     1.023000000
H     5.089000000    -0.591000000     0.502000000
C     5.091000000    -2.784000000     0.590000000
O     5.821000000    -3.052000000    -0.546000000
C     4.781000000    -3.860000000     1.351000000
H     5.104000000    -4.846000000     1.027000000
C     3.991000000    -3.764000000     2.509000000
O     3.691000000    -4.795000000     3.299000000
C     2.623000000    -4.925000000     4.114000000
C     1.390000000    -5.140000000     3.550000000
H     1.331000000    -5.313000000     2.479000000
C     2.786000000    -4.644000000     5.503000000
H     3.800000000    -4.568000000     5.886000000
C     1.657000000    -4.671000000     6.356000000
H     1.846000000    -4.570000000     7.421000000
C     0.468000000    -5.063000000     5.848000000
H    -0.388000000    -5.247000000     6.492000000
C     0.320000000    -5.214000000     4.486000000
O    -0.910000000    -5.486000000     3.896000000
C    -1.788000000    -4.564000000     3.382000000
C    -2.789000000    -5.003000000     2.547000000
H    -2.820000000    -6.073000000     2.359000000
C    -3.791000000    -4.113000000     2.101000000
O    -4.882000000    -4.685000000     1.473000000
C    -5.737000000    -3.888000000     0.726000000
C    -5.461000000    -3.490000000    -0.592000000
H    -4.624000000    -3.962000000    -1.100000000
C    -6.875000000    -3.323000000     1.380000000
H    -7.079000000    -3.720000000     2.371000000
C    -7.831000000    -2.575000000     0.627000000
H    -8.794000000    -2.424000000     1.108000000
C    -7.532000000    -2.288000000    -0.710000000
H    -8.165000000    -1.660000000    -1.332000000
C    -6.362000000    -2.755000000    -1.307000000
O    -6.102000000    -2.465000000    -2.582000000
C    -5.205000000    -1.421000000    -2.930000000
C    -4.759000000    -1.438000000    -4.257000000
H    -4.863000000    -2.260000000    -4.960000000
C    -3.918000000    -0.396000000    -4.741000000
O    -3.556000000    -0.358000000    -6.054000000
C    -2.276000000     0.141000000    -6.400000000
C    -1.127000000    -0.480000000    -5.967000000
H    -1.196000000    -1.427000000    -5.438000000
C    -2.192000000     1.335000000    -7.184000000
H    -3.153000000     1.720000000    -7.514000000
C    -0.904000000     1.765000000    -7.568000000
H    -0.716000000     2.763000000    -7.957000000
C     0.244000000     1.069000000    -7.205000000
H     1.261000000     1.335000000    -7.481000000
C     0.109000000    -0.042000000    -6.485000000
O     1.263000000    -0.731000000    -6.001000000
C     2.167000000    -0.070000000    -5.228000000
C     3.446000000    -0.609000000    -5.148000000
H     3.648000000    -1.459000000    -5.795000000
C     4.381000000     0.118000000    -4.416000000
O     5.588000000    -0.438000000    -4.381000000
C     6.263000000    -0.703000000    -3.218000000
C     7.516000000    -0.103000000    -2.923000000
H     7.756000000     0.735000000    -3.571000000
C     8.151000000    -0.466000000    -1.730000000
H     8.959000000     0.116000000    -1.294000000
C     7.612000000    -1.537000000    -0.959000000
H     7.992000000    -1.879000000     0.000000000
C     6.478000000    -2.194000000    -1.363000000
C     5.729000000    -1.779000000    -2.472000000
H     4.769000000    -2.192000000    -2.770000000
C    -0.919000000    -1.180000000    -1.585000000
H    -1.942000000    -1.473000000    -1.806000000
C    -0.756000000    -0.232000000    -0.597000000
H    -1.551000000     0.268000000    -0.050000000
C     0.565000000     0.142000000    -0.270000000
H     0.674000000     1.099000000     0.366000000
C     1.666000000    -0.470000000    -0.859000000
H     2.636000000     0.018000000    -0.826000000
C     1.481000000    -1.543000000    -1.806000000
H     2.317000000    -2.048000000    -2.282000000
C     0.175000000    -1.800000000    -2.220000000
C     0.004000000    -2.839000000    -3.310000000
O     0.952000000    -3.416000000    -3.885000000
O    -1.055000000    -3.416000000    -3.462000000
O     0.181000000    -7.527000000     0.929000000
H    -0.434000000    -7.645000000     0.205000000
H    -0.299000000    -7.823000000     1.702000000
O     4.432000000    -3.975000000    -8.003000000
H     4.365000000    -4.452000000    -7.176000000
H     5.015000000    -4.511000000    -8.541000000
O     3.716000000    -4.059000000    -4.126000000
H     3.845000000    -4.218000000    -3.191000000
H     2.789000000    -3.830000000    -4.203000000
O     3.293000000    -4.431000000    -1.262000000
H     3.876000000    -3.746000000    -0.937000000
H     2.528000000    -4.387000000    -0.688000000
O     0.639000000    -5.034000000    -0.222000000
H     0.705000000    -5.984000000    -0.124000000
H     0.062000000    -4.911000000    -0.976000000
O    -3.519000000    -3.837000000    -7.591000000
H    -4.156000000    -4.492000000    -7.876000000
H    -2.754000000    -3.989000000    -8.146000000
O    -0.432000000    -8.321000000    -4.996000000
H    -1.311000000    -7.990000000    -5.178000000
H     0.026000000    -7.581000000    -4.597000000
O     0.422000000    -1.745000000    -8.986000000
H     0.534000000    -1.716000000    -8.035000000
H     1.011000000    -2.441000000    -9.275000000
O     0.838000000    -2.246000000     1.474000000
H     0.888000000    -1.971000000     0.559000000
H     0.319000000    -3.050000000     1.455000000
O     2.620000000    -7.058000000    -2.104000000
H     2.094000000    -6.859000000    -2.879000000
H     2.859000000    -6.201000000    -1.751000000
O    -2.714000000    -5.727000000    -2.507000000
H    -3.296000000    -6.209000000    -3.095000000
H    -2.545000000    -4.902000000    -2.961000000
O     0.566000000    -3.910000000    -6.462000000
H     0.896000000    -3.720000000    -5.584000000
H    -0.170000000    -4.505000000    -6.318000000
O    -2.456000000    -4.686000000    -5.277000000
H    -2.902000000    -4.041000000    -5.825000000
H    -1.881000000    -4.166000000    -4.715000000
O     0.664000000    -6.162000000    -3.935000000
H     0.846000000    -5.233000000    -4.075000000
H    -0.080000000    -6.172000000    -3.333000000
O    -2.988000000    -7.325000000    -5.136000000
H    -3.739000000    -7.619000000    -5.653000000
H    -2.957000000    -6.379000000    -5.276000000
O     5.519000000    -5.299000000    -5.874000000
H     5.799000000    -6.180000000    -5.627000000
H     4.926000000    -5.030000000    -5.172000000
O     3.938000000    -1.133000000    -8.506000000
H     3.292000000    -1.255000000    -9.202000000
H     4.060000000    -2.008000000    -8.136000000
O     1.939000000    -4.128000000    -8.858000000
H     2.849000000    -4.306000000    -8.618000000
H     1.557000000    -3.735000000    -8.074000000
O    -2.474000000    -7.728000000    -0.716000000
H    -2.326000000    -6.894000000    -1.164000000
H    -2.621000000    -8.356000000    -1.423000000
