215
-1459.66208
C     3.272000000     3.518000000    -3.094000000
H     3.735000000     2.939000000    -3.889000000
C     3.275000000     3.172000000    -1.733000000
C     2.645000000     4.038000000    -0.804000000
H     2.674000000     3.823000000     0.261000000
C     3.686000000     1.839000000    -1.269000000
O     4.343000000     1.139000000    -2.329000000
H     2.731000000     1.315000000    -1.115000000
O     4.597000000     1.946000000    -0.206000000
C     4.452000000     0.970000000     0.779000000
C     3.680000000     1.356000000     1.873000000
H     3.334000000     2.379000000     2.000000000
C     3.476000000     0.478000000     2.941000000
O     2.752000000     0.979000000     4.000000000
C     3.856000000    -0.858000000     2.793000000
C     3.447000000    -1.948000000     3.796000000
H     4.116000000    -2.811000000     3.780000000
C     2.034000000    -2.421000000     3.634000000
C     1.749000000    -3.509000000     2.909000000
H     2.560000000    -4.093000000     2.481000000
H     3.618000000    -1.633000000     4.828000000
C     4.537000000    -1.238000000     1.676000000
H     4.702000000    -2.293000000     1.473000000
C     4.873000000    -0.333000000     0.648000000
C     5.542000000    -0.832000000    -0.614000000
H     6.155000000    -1.716000000    -0.427000000
H     6.253000000    -0.084000000    -0.971000000
C     4.408000000    -1.133000000    -1.576000000
C     3.944000000    -2.448000000    -1.694000000
H     4.404000000    -3.149000000    -1.002000000
C     3.886000000    -0.164000000    -2.445000000
C     2.908000000    -0.485000000    -3.371000000
H     2.671000000     0.230000000    -4.154000000
C     2.411000000    -1.834000000    -3.445000000
O     1.351000000    -2.129000000    -4.307000000
C     0.073000000    -2.168000000    -3.657000000
C    -0.948000000    -1.396000000    -4.460000000
C    -2.290000000    -1.709000000    -4.455000000
H    -2.625000000    -2.609000000    -3.947000000
C    -0.556000000    -0.201000000    -5.088000000
H     0.495000000     0.059000000    -4.990000000
O    -0.390000000    -3.508000000    -3.472000000
H     0.068000000    -1.703000000    -2.661000000
C     2.913000000    -2.821000000    -2.605000000
C     2.299000000    -4.242000000    -2.601000000
H     3.048000000    -4.925000000    -2.195000000
H     1.979000000    -4.455000000    -3.624000000
C     1.077000000    -4.335000000    -1.721000000
C     1.168000000    -4.772000000    -0.436000000
H     2.164000000    -4.875000000    -0.013000000
C    -0.206000000    -3.990000000    -2.220000000
C    -1.298000000    -4.085000000    -1.372000000
H    -2.212000000    -3.589000000    -1.691000000
C    -1.186000000    -4.494000000    -0.089000000
O    -2.344000000    -4.204000000     0.517000000
C    -2.338000000    -3.076000000     1.502000000
C    -3.778000000    -2.455000000     1.511000000
C    -4.614000000    -2.459000000     0.349000000
H    -4.244000000    -2.960000000    -0.542000000
C    -4.299000000    -1.910000000     2.667000000
H    -3.751000000    -2.033000000     3.597000000
O    -1.904000000    -3.440000000     2.826000000
H    -1.721000000    -2.246000000     1.128000000
C     0.081000000    -4.778000000     0.446000000
C     0.207000000    -5.197000000     1.895000000
H     1.030000000    -5.900000000     2.045000000
H    -0.735000000    -5.643000000     2.222000000
C     0.476000000    -3.936000000     2.726000000
C    -0.617000000    -3.174000000     3.142000000
C    -0.356000000    -2.065000000     3.889000000
H    -1.178000000    -1.445000000     4.240000000
C     0.958000000    -1.645000000     4.132000000
O     1.144000000    -0.499000000     4.823000000
C     1.343000000     0.670000000     4.038000000
H     1.070000000     0.446000000     2.997000000
C     0.433000000     1.856000000     4.420000000
C     0.803000000     3.183000000     4.107000000
H     1.771000000     3.409000000     3.667000000
C    -0.789000000     1.601000000     5.007000000
H    -1.125000000     0.581000000     5.169000000
C    -1.634000000     2.669000000     5.242000000
O    -2.836000000     2.461000000     5.730000000
C    -1.244000000     3.891000000     5.023000000
H    -1.982000000     4.685000000     5.109000000
C    -0.045000000     4.243000000     4.443000000
O     0.178000000     5.581000000     4.165000000
C     1.182000000     6.037000000     3.270000000
C     0.985000000     5.859000000     1.904000000
H     0.049000000     5.540000000     1.452000000
C     2.449000000     6.324000000     3.779000000
H     2.510000000     6.416000000     4.860000000
C     3.395000000     6.770000000     2.907000000
H     4.304000000     7.211000000     3.310000000
C     3.164000000     6.718000000     1.510000000
H     3.968000000     7.145000000     0.917000000
C     1.926000000     6.189000000     1.013000000
O     1.616000000     6.238000000    -0.332000000
C     2.044000000     5.271000000    -1.222000000
C     1.999000000     5.577000000    -2.597000000
H     1.520000000     6.508000000    -2.888000000
C     2.532000000     4.664000000    -3.494000000
O     2.417000000     4.989000000    -4.795000000
C     1.915000000     4.004000000    -5.640000000
C     0.595000000     3.557000000    -5.503000000
H    -0.036000000     3.980000000    -4.724000000
C     2.705000000     3.563000000    -6.668000000
H     3.720000000     3.923000000    -6.814000000
C     2.320000000     2.425000000    -7.378000000
H     3.020000000     2.000000000    -8.093000000
C     1.051000000     1.860000000    -7.214000000
H     0.826000000     0.897000000    -7.666000000
C     0.166000000     2.512000000    -6.328000000
O    -1.104000000     1.990000000    -6.115000000
C    -1.458000000     0.674000000    -5.696000000
C    -2.785000000     0.286000000    -5.620000000
H    -3.601000000     0.862000000    -6.050000000
C    -3.181000000    -0.905000000    -5.127000000
O    -4.527000000    -1.236000000    -5.178000000
C    -5.116000000    -2.090000000    -4.197000000
C    -5.442000000    -1.592000000    -2.962000000
H    -5.231000000    -0.552000000    -2.724000000
C    -5.222000000    -3.457000000    -4.435000000
H    -4.915000000    -3.936000000    -5.361000000
C    -5.734000000    -4.282000000    -3.407000000
H    -5.457000000    -5.332000000    -3.379000000
C    -6.086000000    -3.668000000    -2.161000000
H    -6.548000000    -4.268000000    -1.381000000
C    -6.113000000    -2.299000000    -2.013000000
O    -6.600000000    -1.715000000    -0.852000000
C    -5.902000000    -1.857000000     0.350000000
C    -6.374000000    -1.352000000     1.573000000
H    -7.327000000    -0.830000000     1.573000000
C    -5.523000000    -1.289000000     2.678000000
O    -5.904000000    -0.584000000     3.764000000
C    -5.031000000    -0.269000000     4.786000000
C    -4.925000000    -1.000000000     5.943000000
H    -5.496000000    -1.920000000     6.040000000
C    -4.170000000    -0.644000000     7.055000000
H    -3.952000000    -1.244000000     7.935000000
C    -3.422000000     0.548000000     6.972000000
H    -2.827000000     0.847000000     7.832000000
C    -3.420000000     1.252000000     5.767000000
C    -4.218000000     0.853000000     4.710000000
H    -4.285000000     1.401000000     3.774000000
C    -2.272000000     0.827000000     0.346000000
H    -3.238000000     0.599000000    -0.097000000
C    -1.115000000     0.036000000     0.133000000
H    -1.232000000    -0.929000000    -0.354000000
C     0.138000000     0.634000000     0.322000000
H     0.983000000     0.227000000    -0.004000000
C     0.206000000     1.847000000     0.944000000
H     1.204000000     2.255000000     1.083000000
C    -0.948000000     2.600000000     1.219000000
H    -0.856000000     3.611000000     1.606000000
C    -2.209000000     2.156000000     0.830000000
C    -3.442000000     3.025000000     0.894000000
O    -3.336000000     4.142000000     1.377000000
O    -4.467000000     2.668000000     0.378000000
O    -1.197000000     2.052000000    -2.542000000
H    -1.278000000     2.924000000    -2.155000000
H    -0.970000000     1.484000000    -1.805000000
O    -5.508000000     9.143000000     1.949000000
H    -6.205000000     8.487000000     1.933000000
H    -5.887000000     9.907000000     1.514000000
O    -2.109000000     5.621000000    -3.178000000
H    -3.049000000     5.751000000    -3.306000000
H    -1.972000000     5.769000000    -2.242000000
O    -6.155000000     4.604000000    -2.732000000
H    -6.678000000     5.024000000    -3.414000000
H    -5.785000000     5.331000000    -2.231000000
O    -8.911000000     6.173000000    -1.620000000
H    -9.762000000     6.089000000    -2.050000000
H    -8.726000000     5.297000000    -1.282000000
O    -8.335000000     4.163000000    -0.095000000
H    -7.980000000     3.447000000    -0.622000000
H    -7.564000000     4.602000000     0.263000000
O    -5.155000000     6.832000000    -1.266000000
H    -5.690000000     7.622000000    -1.187000000
H    -5.353000000     6.328000000    -0.476000000
O    -3.365000000     2.845000000    -4.059000000
H    -2.762000000     2.219000000    -3.658000000
H    -3.522000000     3.497000000    -3.376000000
O    -8.150000000     7.397000000     1.973000000
H    -8.860000000     7.337000000     2.612000000
H    -8.158000000     6.550000000     1.527000000
O    -2.077000000     6.011000000    -0.049000000
H    -2.626000000     5.287000000     0.253000000
H    -2.166000000     6.678000000     0.631000000
O    -6.664000000     2.396000000     2.175000000
H    -7.384000000     2.477000000     1.549000000
H    -5.873000000     2.439000000     1.638000000
O    -5.966000000     5.189000000     0.909000000
H    -5.863000000     5.757000000     1.673000000
H    -5.287000000     4.522000000     1.013000000
O    -8.342000000     2.296000000     4.604000000
H    -7.955000000     1.526000000     5.022000000
H    -7.802000000     2.442000000     3.826000000
O    -6.682000000     2.350000000    -1.328000000
H    -6.173000000     2.965000000    -1.856000000
H    -6.113000000     2.143000000    -0.587000000
O    -4.529000000     5.529000000     3.347000000
H    -3.989000000     4.919000000     2.845000000
H    -3.949000000     6.268000000     3.530000000
O    -7.775000000     0.581000000    -3.168000000
H    -7.636000000     1.121000000    -3.945000000
H    -7.389000000     1.085000000    -2.452000000
O    -3.234000000     8.818000000    -2.407000000
H    -3.550000000     8.597000000    -3.283000000
H    -3.741000000     8.256000000    -1.821000000
O    -6.572000000     5.245000000     5.061000000
H    -7.198000000     4.618000000     4.698000000
H    -5.832000000     5.224000000     4.453000000
O    -2.918000000     8.291000000     1.590000000
H    -2.696000000     9.221000000     1.560000000
H    -3.870000000     8.275000000     1.689000000
