215
-1448.05998
C    -3.263000000    -3.186000000     2.270000000
H    -3.783000000    -2.503000000     1.604000000
C    -2.503000000    -2.669000000     3.314000000
C    -1.623000000    -3.507000000     3.994000000
H    -0.964000000    -3.112000000     4.763000000
C    -2.318000000    -1.150000000     3.443000000
O    -3.568000000    -0.396000000     3.518000000
H    -1.659000000    -0.867000000     2.609000000
O    -1.564000000    -0.922000000     4.655000000
C    -0.514000000     0.030000000     4.508000000
C     0.799000000    -0.416000000     4.492000000
H     1.046000000    -1.474000000     4.490000000
C     1.814000000     0.501000000     4.249000000
O     3.041000000    -0.026000000     3.942000000
C     1.564000000     1.875000000     4.241000000
C     2.654000000     2.945000000     4.004000000
H     2.248000000     3.814000000     4.525000000
C     2.934000000     3.182000000     2.506000000
C     2.187000000     4.215000000     1.980000000
H     1.558000000     4.850000000     2.598000000
H     3.536000000     2.554000000     4.515000000
C     0.219000000     2.261000000     4.369000000
H    -0.057000000     3.310000000     4.438000000
C    -0.827000000     1.397000000     4.468000000
C    -2.250000000     1.844000000     4.630000000
H    -2.174000000     2.811000000     5.133000000
H    -2.722000000     1.195000000     5.370000000
C    -3.081000000     1.956000000     3.318000000
C    -3.071000000     3.123000000     2.587000000
H    -2.576000000     4.004000000     2.987000000
C    -3.613000000     0.773000000     2.777000000
C    -4.215000000     0.769000000     1.540000000
H    -4.575000000    -0.188000000     1.172000000
C    -4.148000000     1.957000000     0.757000000
O    -4.648000000     1.875000000    -0.565000000
C    -3.614000000     1.759000000    -1.554000000
C    -4.060000000     0.698000000    -2.567000000
C    -3.659000000     0.868000000    -3.893000000
H    -3.090000000     1.751000000    -4.173000000
C    -4.787000000    -0.478000000    -2.278000000
H    -5.257000000    -0.541000000    -1.300000000
O    -3.346000000     2.991000000    -2.159000000
H    -2.690000000     1.332000000    -1.139000000
C    -3.660000000     3.150000000     1.316000000
C    -3.598000000     4.406000000     0.520000000
H    -3.677000000     5.361000000     1.044000000
H    -4.471000000     4.461000000    -0.134000000
C    -2.326000000     4.372000000    -0.397000000
C    -1.152000000     4.950000000     0.034000000
H    -1.119000000     5.221000000     1.086000000
C    -2.312000000     3.744000000    -1.628000000
C    -1.153000000     3.705000000    -2.399000000
H    -1.123000000     3.314000000    -3.413000000
C    -0.009000000     4.294000000    -1.924000000
O     1.192000000     4.283000000    -2.654000000
C     2.143000000     3.221000000    -2.258000000
C     2.616000000     2.344000000    -3.422000000
C     1.707000000     1.915000000    -4.382000000
H     0.691000000     2.298000000    -4.434000000
C     3.938000000     1.947000000    -3.513000000
H     4.655000000     2.228000000    -2.747000000
O     3.237000000     3.807000000    -1.513000000
H     1.610000000     2.493000000    -1.629000000
C     0.067000000     4.941000000    -0.697000000
C     1.350000000     5.501000000    -0.127000000
H     1.189000000     6.323000000     0.575000000
H     1.823000000     6.080000000    -0.923000000
C     2.261000000     4.471000000     0.563000000
C     3.123000000     3.619000000    -0.224000000
C     3.816000000     2.539000000     0.316000000
H     4.447000000     1.945000000    -0.340000000
C     3.637000000     2.281000000     1.650000000
O     4.144000000     1.137000000     2.172000000
C     3.270000000    -0.025000000     2.476000000
H     2.320000000     0.065000000     1.929000000
C     3.731000000    -1.328000000     1.927000000
C     3.616000000    -2.536000000     2.743000000
H     3.309000000    -2.475000000     3.784000000
C     4.201000000    -1.410000000     0.634000000
H     4.374000000    -0.465000000     0.127000000
C     4.555000000    -2.724000000     0.155000000
O     4.980000000    -2.749000000    -1.147000000
C     4.278000000    -3.891000000     0.841000000
H     4.413000000    -4.891000000     0.436000000
C     3.808000000    -3.781000000     2.158000000
O     3.498000000    -4.978000000     2.855000000
C     2.678000000    -5.134000000     3.909000000
C     1.333000000    -5.262000000     3.690000000
H     0.931000000    -5.309000000     2.681000000
C     3.142000000    -5.176000000     5.218000000
H     4.201000000    -5.166000000     5.463000000
C     2.261000000    -5.292000000     6.286000000
H     2.784000000    -5.159000000     7.229000000
C     0.846000000    -5.526000000     6.052000000
H     0.156000000    -5.774000000     6.855000000
C     0.452000000    -5.568000000     4.707000000
O    -0.891000000    -5.742000000     4.590000000
C    -1.673000000    -4.917000000     3.806000000
C    -2.462000000    -5.397000000     2.749000000
H    -2.459000000    -6.463000000     2.537000000
C    -3.250000000    -4.538000000     1.940000000
O    -3.840000000    -5.050000000     0.802000000
C    -4.873000000    -4.377000000     0.200000000
C    -4.724000000    -3.901000000    -1.080000000
H    -3.761000000    -4.072000000    -1.553000000
C    -6.099000000    -4.124000000     0.798000000
H    -6.202000000    -4.591000000     1.774000000
C    -7.148000000    -3.583000000     0.206000000
H    -8.036000000    -3.352000000     0.789000000
C    -6.956000000    -3.026000000    -1.052000000
H    -7.780000000    -2.484000000    -1.510000000
C    -5.722000000    -3.195000000    -1.696000000
O    -5.520000000    -2.709000000    -2.972000000
C    -4.909000000    -1.516000000    -3.228000000
C    -4.403000000    -1.369000000    -4.528000000
H    -4.568000000    -2.114000000    -5.301000000
C    -3.772000000    -0.181000000    -4.837000000
O    -3.339000000    -0.039000000    -6.127000000
C    -2.229000000     0.619000000    -6.574000000
C    -0.913000000     0.311000000    -6.120000000
H    -0.750000000    -0.599000000    -5.548000000
C    -2.409000000     1.555000000    -7.565000000
H    -3.422000000     1.864000000    -7.810000000
C    -1.291000000     2.139000000    -8.255000000
H    -1.496000000     2.744000000    -9.135000000
C    -0.006000000     1.700000000    -7.885000000
H     0.854000000     1.810000000    -8.540000000
C     0.175000000     0.922000000    -6.780000000
O     1.453000000     0.554000000    -6.486000000
C     2.178000000     1.110000000    -5.449000000
C     3.535000000     0.723000000    -5.547000000
H     3.841000000     0.126000000    -6.402000000
C     4.438000000     1.107000000    -4.524000000
O     5.721000000     0.565000000    -4.493000000
C     6.155000000    -0.074000000    -3.419000000
C     7.296000000     0.355000000    -2.750000000
H     7.924000000     1.101000000    -3.230000000
C     7.597000000    -0.058000000    -1.466000000
H     8.526000000     0.311000000    -1.038000000
C     6.905000000    -1.206000000    -0.979000000
H     7.145000000    -1.715000000    -0.048000000
C     5.805000000    -1.754000000    -1.685000000
C     5.373000000    -1.111000000    -2.884000000
H     4.438000000    -1.400000000    -3.357000000
C    -1.322000000    -1.231000000    -1.009000000
H    -2.351000000    -1.456000000    -1.275000000
C    -1.041000000    -0.329000000     0.050000000
H    -1.821000000     0.120000000     0.658000000
C     0.218000000     0.264000000     0.134000000
H     0.288000000     1.143000000     0.768000000
C     1.258000000    -0.005000000    -0.780000000
H     2.194000000     0.546000000    -0.779000000
C     1.013000000    -0.994000000    -1.716000000
H     1.776000000    -1.173000000    -2.469000000
C    -0.256000000    -1.564000000    -1.883000000
C    -0.646000000    -2.360000000    -3.115000000
O     0.081000000    -2.547000000    -4.052000000
O    -1.723000000    -2.957000000    -3.153000000
O     4.267000000    -5.649000000    -2.667000000
H     4.616000000    -5.756000000    -3.551000000
H     3.664000000    -4.909000000    -2.736000000
O    -3.822000000    -8.198000000    -1.093000000
H    -4.327000000    -8.372000000    -1.887000000
H    -3.215000000    -7.501000000    -1.343000000
O     2.188000000    -3.928000000    -3.193000000
H     1.861000000    -4.315000000    -2.382000000
H     1.492000000    -3.334000000    -3.473000000
O     1.206000000    -4.890000000    -0.218000000
H     1.263000000    -4.079000000     0.287000000
H     0.306000000    -4.907000000    -0.543000000
O    -1.652000000    -6.039000000    -0.565000000
H    -1.916000000    -5.574000000    -1.359000000
H    -2.245000000    -5.712000000     0.112000000
O    -5.184000000    -6.017000000    -4.792000000
H    -5.960000000    -5.473000000    -4.927000000
H    -5.351000000    -6.804000000    -5.310000000
O     0.640000000    -8.733000000    -3.609000000
H     0.392000000    -8.832000000    -2.690000000
H     0.457000000    -7.814000000    -3.809000000
O     2.052000000    -5.656000000    -5.464000000
H     1.103000000    -5.772000000    -5.515000000
H     2.169000000    -4.866000000    -4.937000000
O     3.609000000    -4.919000000    -7.682000000
H     3.869000000    -5.603000000    -8.299000000
H     3.001000000    -5.354000000    -7.084000000
O    -2.637000000    -2.081000000    -8.537000000
H    -2.176000000    -2.083000000    -7.699000000
H    -3.485000000    -2.483000000    -8.345000000
O     0.792000000    -2.485000000     1.180000000
H     0.413000000    -1.744000000     0.707000000
H     1.736000000    -2.335000000     1.142000000
O     2.504000000    -7.369000000     0.210000000
H     2.105000000    -6.571000000    -0.137000000
H     2.071000000    -7.506000000     1.053000000
O    -3.097000000    -5.504000000    -3.276000000
H    -3.689000000    -5.761000000    -3.983000000
H    -3.016000000    -4.555000000    -3.365000000
O     1.020000000    -2.151000000    -6.397000000
H     0.595000000    -2.162000000    -5.539000000
H     1.796000000    -1.604000000    -6.273000000
O    -1.977000000    -3.153000000    -6.009000000
H    -2.694000000    -3.699000000    -5.687000000
H    -1.451000000    -2.965000000    -5.231000000
O    -0.540000000    -6.257000000    -4.369000000
H    -1.269000000    -5.918000000    -3.849000000
H    -0.921000000    -6.437000000    -5.228000000
O    -1.927000000    -7.073000000    -6.587000000
H    -2.504000000    -6.349000000    -6.831000000
H    -2.247000000    -7.817000000    -7.098000000
O     0.500000000    -1.298000000    -8.977000000
H    -0.318000000    -0.848000000    -8.767000000
H     0.774000000    -1.696000000    -8.151000000
O     0.026000000    -4.328000000    -8.451000000
H    -0.679000000    -4.110000000    -7.841000000
H     0.766000000    -3.792000000    -8.163000000
