215
-1434.22061
C    -3.509000000    -2.441000000     1.415000000
H    -3.955000000    -1.620000000     0.859000000
C    -2.835000000    -2.210000000     2.648000000
C    -2.294000000    -3.236000000     3.386000000
H    -1.735000000    -3.039000000     4.297000000
C    -2.560000000    -0.746000000     3.040000000
O    -3.807000000     0.033000000     2.738000000
H    -1.746000000    -0.284000000     2.462000000
O    -2.130000000    -0.567000000     4.451000000
C    -0.988000000     0.195000000     4.619000000
C     0.218000000    -0.423000000     4.849000000
H     0.192000000    -1.495000000     5.027000000
C     1.378000000     0.311000000     4.774000000
O     2.579000000    -0.311000000     4.676000000
C     1.310000000     1.681000000     4.624000000
C     2.530000000     2.517000000     4.401000000
H     2.309000000     3.476000000     4.874000000
C     2.930000000     2.724000000     2.915000000
C     2.399000000     3.754000000     2.165000000
H     1.805000000     4.500000000     2.687000000
H     3.366000000     2.023000000     4.901000000
C     0.068000000     2.291000000     4.480000000
H     0.070000000     3.374000000     4.391000000
C    -1.120000000     1.582000000     4.424000000
C    -2.494000000     2.282000000     4.332000000
H    -2.472000000     3.300000000     4.726000000
H    -3.307000000     1.663000000     4.716000000
C    -3.059000000     2.419000000     2.902000000
C    -2.889000000     3.657000000     2.197000000
H    -2.480000000     4.557000000     2.648000000
C    -3.641000000     1.363000000     2.228000000
C    -4.076000000     1.542000000     0.931000000
H    -4.570000000     0.722000000     0.416000000
C    -3.832000000     2.642000000     0.211000000
O    -4.166000000     2.676000000    -1.100000000
C    -3.204000000     2.373000000    -2.183000000
C    -3.923000000     1.582000000    -3.316000000
C    -3.486000000     1.794000000    -4.636000000
H    -2.723000000     2.504000000    -4.943000000
C    -4.854000000     0.578000000    -3.032000000
H    -5.241000000     0.548000000    -2.017000000
O    -2.612000000     3.650000000    -2.587000000
H    -2.440000000     1.690000000    -1.784000000
C    -3.278000000     3.781000000     0.853000000
C    -2.912000000     5.014000000     0.024000000
H    -2.925000000     5.913000000     0.643000000
H    -3.724000000     5.138000000    -0.697000000
C    -1.549000000     4.728000000    -0.742000000
C    -0.296000000     5.031000000    -0.056000000
H    -0.255000000     5.605000000     0.867000000
C    -1.516000000     4.062000000    -1.993000000
C    -0.336000000     3.701000000    -2.579000000
H    -0.340000000     3.240000000    -3.564000000
C     0.857000000     4.015000000    -1.961000000
O     1.985000000     3.625000000    -2.586000000
C     2.536000000     2.457000000    -2.039000000
C     2.946000000     1.413000000    -3.060000000
C     2.105000000     1.103000000    -4.077000000
H     1.189000000     1.681000000    -4.173000000
C     4.070000000     0.659000000    -2.956000000
H     4.814000000     0.977000000    -2.230000000
O     3.605000000     2.880000000    -1.173000000
H     1.870000000     1.847000000    -1.410000000
C     0.852000000     4.694000000    -0.678000000
C     2.166000000     5.079000000     0.026000000
H     2.120000000     6.000000000     0.612000000
H     2.973000000     5.425000000    -0.623000000
C     2.669000000     3.835000000     0.770000000
C     3.465000000     2.868000000     0.117000000
C     3.995000000     1.848000000     0.903000000
H     4.707000000     1.150000000     0.469000000
C     3.730000000     1.737000000     2.259000000
O     4.045000000     0.521000000     2.857000000
C     3.109000000    -0.516000000     3.312000000
H     2.268000000    -0.433000000     2.608000000
C     3.685000000    -1.905000000     2.990000000
C     3.163000000    -3.104000000     3.502000000
H     2.284000000    -3.091000000     4.141000000
C     4.775000000    -2.045000000     2.165000000
H     5.355000000    -1.166000000     1.895000000
C     5.190000000    -3.258000000     1.693000000
O     6.073000000    -3.465000000     0.660000000
C     4.583000000    -4.429000000     2.152000000
H     4.902000000    -5.401000000     1.783000000
C     3.545000000    -4.379000000     3.078000000
O     2.888000000    -5.524000000     3.445000000
C     1.701000000    -5.472000000     4.163000000
C     0.533000000    -5.528000000     3.541000000
H     0.649000000    -5.542000000     2.460000000
C     1.764000000    -5.524000000     5.588000000
H     2.726000000    -5.330000000     6.055000000
C     0.588000000    -5.528000000     6.393000000
H     0.588000000    -5.680000000     7.470000000
C    -0.640000000    -5.676000000     5.714000000
H    -1.583000000    -5.799000000     6.240000000
C    -0.662000000    -5.681000000     4.275000000
O    -1.901000000    -5.636000000     3.731000000
C    -2.374000000    -4.557000000     2.957000000
C    -3.007000000    -4.830000000     1.694000000
H    -3.080000000    -5.861000000     1.358000000
C    -3.588000000    -3.760000000     0.964000000
O    -4.098000000    -4.016000000    -0.331000000
C    -5.182000000    -3.416000000    -0.920000000
C    -5.133000000    -2.724000000    -2.108000000
H    -4.163000000    -2.638000000    -2.592000000
C    -6.368000000    -3.359000000    -0.138000000
H    -6.407000000    -4.051000000     0.699000000
C    -7.468000000    -2.662000000    -0.574000000
H    -8.379000000    -2.687000000     0.018000000
C    -7.387000000    -1.936000000    -1.764000000
H    -8.249000000    -1.343000000    -2.058000000
C    -6.184000000    -1.955000000    -2.424000000
O    -6.061000000    -1.341000000    -3.703000000
C    -5.297000000    -0.287000000    -4.015000000
C    -4.761000000    -0.167000000    -5.279000000
H    -5.206000000    -0.769000000    -6.067000000
C    -3.811000000     0.848000000    -5.607000000
O    -3.271000000     0.893000000    -6.897000000
C    -1.906000000     1.052000000    -7.032000000
C    -0.968000000     0.425000000    -6.195000000
H    -1.388000000    -0.218000000    -5.426000000
C    -1.435000000     1.877000000    -8.050000000
H    -2.135000000     2.370000000    -8.720000000
C    -0.048000000     2.139000000    -8.222000000
H     0.171000000     2.927000000    -8.939000000
C     0.864000000     1.490000000    -7.396000000
H     1.914000000     1.673000000    -7.612000000
C     0.398000000     0.585000000    -6.467000000
O     1.309000000    -0.254000000    -5.942000000
C     2.293000000     0.069000000    -4.965000000
C     3.397000000    -0.689000000    -4.841000000
H     3.669000000    -1.498000000    -5.514000000
C     4.299000000    -0.433000000    -3.839000000
O     5.410000000    -1.318000000    -3.698000000
C     6.050000000    -1.403000000    -2.464000000
C     7.139000000    -0.549000000    -2.182000000
H     7.447000000     0.148000000    -2.957000000
C     7.745000000    -0.531000000    -0.973000000
H     8.607000000     0.117000000    -0.838000000
C     7.431000000    -1.502000000    -0.040000000
H     8.060000000    -1.555000000     0.845000000
C     6.371000000    -2.445000000    -0.295000000
C     5.688000000    -2.354000000    -1.489000000
H     4.929000000    -3.120000000    -1.630000000
C    -0.768000000    -0.502000000    -1.819000000
H    -1.752000000    -0.560000000    -2.278000000
C    -0.545000000     0.271000000    -0.694000000
H    -1.296000000     0.993000000    -0.384000000
C     0.645000000     0.092000000     0.042000000
H     0.712000000     0.720000000     0.882000000
C     1.715000000    -0.676000000    -0.427000000
H     2.693000000    -0.592000000     0.040000000
C     1.505000000    -1.330000000    -1.668000000
H     2.284000000    -2.018000000    -1.986000000
C     0.236000000    -1.346000000    -2.287000000
C     0.137000000    -2.252000000    -3.499000000
O     1.084000000    -2.976000000    -3.791000000
O    -0.963000000    -2.357000000    -4.111000000
O     0.744000000    -6.788000000     0.033000000
H    -0.116000000    -6.720000000    -0.382000000
H     1.330000000    -6.307000000    -0.550000000
O    -0.103000000    -1.677000000    -9.510000000
H    -0.593000000    -2.075000000    -8.790000000
H    -0.263000000    -0.737000000    -9.416000000
O     0.594000000    -7.771000000    -5.860000000
H     0.174000000    -8.567000000    -6.186000000
H     1.524000000    -7.994000000    -5.810000000
O    -1.158000000    -6.040000000    -1.927000000
H    -0.441000000    -5.929000000    -2.551000000
H    -1.844000000    -5.453000000    -2.243000000
O    -4.982000000    -3.954000000    -5.094000000
H    -5.131000000    -3.081000000    -4.730000000
H    -5.610000000    -4.514000000    -4.638000000
O     6.355000000    -1.432000000    -6.251000000
H     5.953000000    -1.710000000    -5.428000000
H     5.824000000    -0.689000000    -6.537000000
O    -3.243000000    -1.432000000    -9.071000000
H    -2.885000000    -1.216000000    -9.932000000
H    -3.528000000    -2.342000000    -9.151000000
O     1.185000000    -5.818000000    -3.453000000
H     1.204000000    -4.864000000    -3.533000000
H     1.239000000    -6.135000000    -4.355000000
O     2.353000000    -8.290000000    -2.618000000
H     1.960000000    -7.433000000    -2.783000000
H     2.695000000    -8.564000000    -3.469000000
O    -1.064000000    -5.117000000    -7.743000000
H    -1.867000000    -5.624000000    -7.863000000
H    -1.288000000    -4.469000000    -7.075000000
O     5.132000000    -6.250000000    -4.155000000
H     4.411000000    -5.621000000    -4.113000000
H     5.215000000    -6.578000000    -3.259000000
O    -2.393000000    -4.728000000    -4.015000000
H    -3.143000000    -4.675000000    -4.606000000
H    -1.906000000    -3.919000000    -4.173000000
O     3.490000000    -4.351000000    -4.586000000
H     2.989000000    -3.691000000    -4.107000000
H     3.191000000    -4.268000000    -5.491000000
O    -1.121000000    -2.657000000    -6.742000000
H    -1.049000000    -2.598000000    -5.789000000
H    -1.621000000    -1.881000000    -6.993000000
O     1.214000000    -5.225000000    -9.821000000
H     2.104000000    -5.178000000    -9.471000000
H     0.675000000    -4.782000000    -9.166000000
O    -2.208000000    -7.285000000    -5.214000000
H    -2.180000000    -6.408000000    -4.832000000
H    -1.298000000    -7.476000000    -5.443000000
O     1.536000000    -3.571000000    -6.297000000
H     1.237000000    -3.449000000    -5.396000000
H     0.764000000    -3.391000000    -6.833000000
O     3.422000000    -2.909000000    -8.844000000
H     3.637000000    -3.804000000    -9.104000000
H     2.773000000    -3.010000000    -8.148000000
O    -2.432000000    -8.401000000    -1.751000000
H    -1.661000000    -8.900000000    -2.022000000
H    -2.109000000    -7.508000000    -1.633000000
