215
-1430.44195
C    -3.510000000    -2.786000000     2.181000000
H    -4.264000000    -2.074000000     1.855000000
C    -2.420000000    -2.430000000     3.004000000
C    -1.461000000    -3.409000000     3.283000000
H    -0.569000000    -3.087000000     3.814000000
C    -2.192000000    -0.979000000     3.346000000
O    -3.496000000    -0.237000000     3.353000000
H    -1.534000000    -0.568000000     2.566000000
O    -1.450000000    -0.860000000     4.519000000
C    -0.467000000     0.082000000     4.599000000
C     0.816000000    -0.406000000     4.744000000
H     0.956000000    -1.484000000     4.762000000
C     1.834000000     0.525000000     4.497000000
O     3.020000000    -0.100000000     4.196000000
C     1.618000000     1.898000000     4.369000000
C     2.811000000     2.824000000     4.037000000
H     2.638000000     3.773000000     4.550000000
C     2.994000000     2.888000000     2.555000000
C     2.303000000     3.888000000     1.874000000
H     1.711000000     4.534000000     2.517000000
H     3.741000000     2.426000000     4.449000000
C     0.334000000     2.375000000     4.542000000
H     0.156000000     3.442000000     4.440000000
C    -0.725000000     1.498000000     4.594000000
C    -2.157000000     1.964000000     4.592000000
H    -2.258000000     2.942000000     5.067000000
H    -2.771000000     1.330000000     5.237000000
C    -2.806000000     2.101000000     3.220000000
C    -2.800000000     3.287000000     2.483000000
H    -2.256000000     4.129000000     2.904000000
C    -3.476000000     0.942000000     2.660000000
C    -4.115000000     1.091000000     1.419000000
H    -4.547000000     0.254000000     0.877000000
C    -4.054000000     2.264000000     0.725000000
O    -4.540000000     2.181000000    -0.573000000
C    -3.594000000     2.232000000    -1.603000000
C    -4.082000000     1.306000000    -2.751000000
C    -3.714000000     1.540000000    -4.045000000
H    -3.303000000     2.486000000    -4.386000000
C    -4.643000000     0.052000000    -2.449000000
H    -4.864000000    -0.158000000    -1.405000000
O    -3.351000000     3.555000000    -2.073000000
H    -2.680000000     1.785000000    -1.185000000
C    -3.351000000     3.352000000     1.201000000
C    -3.176000000     4.680000000     0.455000000
H    -3.077000000     5.497000000     1.172000000
H    -4.031000000     5.027000000    -0.128000000
C    -1.944000000     4.611000000    -0.450000000
C    -0.755000000     5.006000000     0.067000000
H    -0.693000000     5.301000000     1.111000000
C    -2.128000000     3.998000000    -1.651000000
C    -0.982000000     3.666000000    -2.418000000
H    -1.028000000     3.137000000    -3.366000000
C     0.291000000     4.104000000    -1.961000000
O     1.333000000     3.700000000    -2.725000000
C     2.000000000     2.483000000    -2.282000000
C     2.356000000     1.475000000    -3.412000000
C     1.710000000     1.533000000    -4.667000000
H     1.041000000     2.383000000    -4.772000000
C     3.242000000     0.398000000    -3.229000000
H     3.526000000     0.220000000    -2.195000000
O     3.120000000     3.014000000    -1.546000000
H     1.394000000     1.938000000    -1.544000000
C     0.363000000     4.841000000    -0.814000000
C     1.757000000     5.171000000    -0.243000000
H     1.653000000     6.004000000     0.455000000
H     2.468000000     5.480000000    -1.012000000
C     2.361000000     4.014000000     0.479000000
C     3.160000000     3.076000000    -0.232000000
C     3.833000000     2.049000000     0.432000000
H     4.386000000     1.338000000    -0.177000000
C     3.731000000     1.894000000     1.800000000
O     4.319000000     0.908000000     2.467000000
C     3.478000000    -0.238000000     2.785000000
H     2.654000000    -0.285000000     2.057000000
C     4.216000000    -1.554000000     2.678000000
C     3.864000000    -2.742000000     3.329000000
H     3.158000000    -2.756000000     4.155000000
C     5.200000000    -1.645000000     1.671000000
H     5.464000000    -0.725000000     1.156000000
C     5.674000000    -2.902000000     1.249000000
O     6.466000000    -3.124000000     0.105000000
C     5.283000000    -4.024000000     1.867000000
H     5.610000000    -5.000000000     1.519000000
C     4.425000000    -3.922000000     2.933000000
O     4.039000000    -5.147000000     3.536000000
C     2.810000000    -5.318000000     4.157000000
C     1.618000000    -5.313000000     3.478000000
H     1.678000000    -5.238000000     2.395000000
C     2.819000000    -5.598000000     5.551000000
H     3.702000000    -5.558000000     6.184000000
C     1.546000000    -5.804000000     6.203000000
H     1.586000000    -6.064000000     7.258000000
C     0.317000000    -5.687000000     5.442000000
H    -0.647000000    -5.774000000     5.936000000
C     0.406000000    -5.498000000     4.078000000
O    -0.750000000    -5.695000000     3.347000000
C    -1.740000000    -4.752000000     3.068000000
C    -2.828000000    -5.125000000     2.302000000
H    -2.930000000    -6.187000000     2.092000000
C    -3.649000000    -4.140000000     1.779000000
O    -4.777000000    -4.546000000     0.962000000
C    -5.470000000    -3.660000000     0.185000000
C    -5.169000000    -3.326000000    -1.126000000
H    -4.239000000    -3.679000000    -1.563000000
C    -6.699000000    -3.200000000     0.718000000
H    -7.100000000    -3.476000000     1.690000000
C    -7.580000000    -2.403000000    -0.044000000
H    -8.493000000    -2.013000000     0.399000000
C    -7.259000000    -2.108000000    -1.383000000
H    -7.948000000    -1.541000000    -2.004000000
C    -6.048000000    -2.565000000    -1.926000000
O    -5.651000000    -2.157000000    -3.148000000
C    -4.939000000    -0.935000000    -3.366000000
C    -4.593000000    -0.593000000    -4.676000000
H    -4.698000000    -1.346000000    -5.452000000
C    -3.904000000     0.566000000    -5.009000000
O    -3.654000000     0.860000000    -6.330000000
C    -2.479000000     1.363000000    -6.819000000
C    -1.208000000     0.755000000    -6.547000000
H    -1.197000000     0.051000000    -5.719000000
C    -2.456000000     2.419000000    -7.806000000
H    -3.389000000     2.865000000    -8.139000000
C    -1.264000000     2.872000000    -8.334000000
H    -1.175000000     3.780000000    -8.926000000
C    -0.025000000     2.252000000    -8.015000000
H     0.866000000     2.680000000    -8.467000000
C    -0.032000000     1.168000000    -7.144000000
O     1.210000000     0.610000000    -6.817000000
C     1.869000000     0.511000000    -5.624000000
C     2.850000000    -0.461000000    -5.433000000
H     2.993000000    -1.222000000    -6.196000000
C     3.565000000    -0.509000000    -4.201000000
O     4.451000000    -1.603000000    -3.906000000
C     5.493000000    -1.585000000    -3.009000000
C     6.397000000    -0.541000000    -3.038000000
H     6.269000000     0.175000000    -3.845000000
C     7.483000000    -0.505000000    -2.171000000
H     8.255000000     0.220000000    -2.417000000
C     7.510000000    -1.350000000    -1.051000000
H     8.352000000    -1.403000000    -0.367000000
C     6.521000000    -2.248000000    -0.879000000
C     5.459000000    -2.418000000    -1.836000000
H     4.769000000    -3.251000000    -1.729000000
C    -0.807000000    -2.412000000    -1.766000000
H    -1.565000000    -2.416000000    -2.545000000
C    -0.911000000    -1.545000000    -0.634000000
H    -1.739000000    -0.847000000    -0.542000000
C     0.195000000    -1.493000000     0.269000000
H     0.362000000    -0.622000000     0.930000000
C     1.251000000    -2.316000000     0.115000000
H     1.936000000    -2.362000000     0.958000000
C     1.332000000    -3.197000000    -0.966000000
H     2.300000000    -3.641000000    -1.181000000
C     0.346000000    -3.266000000    -1.912000000
C     0.521000000    -4.108000000    -3.166000000
O     1.440000000    -4.821000000    -3.183000000
O    -0.216000000    -4.037000000    -4.149000000
O    -0.652000000    -7.419000000    -0.452000000
H    -1.118000000    -6.711000000    -0.898000000
H     0.268000000    -7.159000000    -0.487000000
O    -0.886000000    -1.734000000    -8.592000000
H    -0.964000000    -1.772000000    -7.638000000
H    -0.082000000    -2.217000000    -8.785000000
O     1.882000000    -7.863000000    -6.348000000
H     2.300000000    -8.332000000    -7.070000000
H     2.085000000    -8.386000000    -5.573000000
O    -2.396000000    -6.046000000    -1.992000000
H    -2.745000000    -5.670000000    -2.800000000
H    -3.135000000    -6.032000000    -1.383000000
O     2.626000000    -8.535000000     0.738000000
H     2.231000000    -8.612000000    -0.131000000
H     3.457000000    -8.084000000     0.584000000
O    -3.864000000    -4.020000000    -6.832000000
H    -4.524000000    -4.698000000    -6.976000000
H    -4.112000000    -3.313000000    -7.427000000
O    -0.254000000    -7.249000000    -4.221000000
H     0.413000000    -6.566000000    -4.149000000
H    -0.829000000    -7.104000000    -3.470000000
O     1.896000000    -7.017000000    -1.622000000
H     1.887000000    -7.548000000    -2.418000000
H     1.711000000    -6.128000000    -1.924000000
O    -0.634000000    -5.338000000    -8.490000000
H    -1.107000000    -6.133000000    -8.247000000
H    -0.022000000    -5.192000000    -7.769000000
O     2.571000000    -9.313000000    -3.773000000
H     3.009000000    -9.747000000    -3.041000000
H     1.932000000    -9.954000000    -4.085000000
O     5.584000000    -6.152000000    -2.674000000
H     5.324000000    -5.325000000    -3.079000000
H     5.386000000    -6.815000000    -3.335000000
O    -1.884000000    -9.330000000    -2.858000000
H    -1.117000000    -9.534000000    -3.393000000
H    -1.658000000    -8.510000000    -2.420000000
O    -2.689000000    -5.373000000    -4.799000000
H    -3.300000000    -4.963000000    -5.411000000
H    -1.890000000    -4.851000000    -4.872000000
O     3.938000000    -4.580000000    -4.201000000
H     3.098000000    -4.950000000    -3.929000000
H     3.948000000    -3.703000000    -3.818000000
O    -1.400000000    -2.596000000    -6.141000000
H    -0.989000000    -2.885000000    -5.327000000
H    -2.273000000    -2.990000000    -6.121000000
O     2.193000000    -4.892000000    -9.158000000
H     2.842000000    -5.589000000    -9.254000000
H     1.857000000    -5.000000000    -8.268000000
O    -2.125000000    -7.617000000    -6.298000000
H    -2.408000000    -6.859000000    -5.787000000
H    -1.320000000    -7.907000000    -5.870000000
O     1.317000000    -5.197000000    -6.482000000
H     1.254000000    -4.783000000    -5.620000000
H     1.495000000    -6.118000000    -6.293000000
O     4.080000000    -3.403000000    -6.829000000
H     3.657000000    -4.188000000    -7.178000000
H     4.420000000    -3.673000000    -5.977000000
