215
-1446.43477
C    -3.036000000    -3.555000000     1.309000000
H    -3.875000000    -2.864000000     1.299000000
C    -2.063000000    -3.286000000     2.238000000
C    -1.195000000    -4.348000000     2.551000000
H    -0.276000000    -4.069000000     3.059000000
C    -1.946000000    -1.972000000     2.973000000
O    -3.195000000    -1.314000000     3.101000000
H    -1.230000000    -1.342000000     2.424000000
O    -1.371000000    -1.968000000     4.324000000
C    -0.490000000    -1.034000000     4.717000000
C     0.879000000    -1.372000000     4.574000000
H     1.119000000    -2.418000000     4.404000000
C     1.809000000    -0.351000000     4.619000000
O     3.073000000    -0.661000000     4.202000000
C     1.483000000     0.988000000     4.697000000
C     2.550000000     2.122000000     4.586000000
H     2.186000000     2.911000000     5.248000000
C     2.682000000     2.487000000     3.140000000
C     1.931000000     3.521000000     2.633000000
H     1.444000000     4.160000000     3.365000000
H     3.482000000     1.693000000     4.960000000
C     0.131000000     1.250000000     4.913000000
H    -0.198000000     2.280000000     5.032000000
C    -0.823000000     0.323000000     4.781000000
C    -2.247000000     0.695000000     4.926000000
H    -2.347000000     1.549000000     5.599000000
H    -2.929000000    -0.009000000     5.408000000
C    -2.748000000     1.015000000     3.512000000
C    -2.846000000     2.332000000     3.091000000
H    -2.351000000     3.069000000     3.718000000
C    -3.353000000     0.029000000     2.703000000
C    -4.032000000     0.353000000     1.514000000
H    -4.327000000    -0.455000000     0.850000000
C    -4.068000000     1.642000000     1.100000000
O    -4.508000000     1.877000000    -0.203000000
C    -3.588000000     2.058000000    -1.259000000
C    -4.124000000     1.329000000    -2.567000000
C    -3.712000000     1.808000000    -3.809000000
H    -3.214000000     2.771000000    -3.896000000
C    -4.657000000     0.025000000    -2.447000000
H    -4.703000000    -0.410000000    -1.452000000
O    -3.410000000     3.498000000    -1.342000000
H    -2.617000000     1.594000000    -1.029000000
C    -3.471000000     2.711000000     1.889000000
C    -3.504000000     4.139000000     1.472000000
H    -3.526000000     4.722000000     2.395000000
H    -4.352000000     4.530000000     0.905000000
C    -2.273000000     4.465000000     0.556000000
C    -1.058000000     4.960000000     1.053000000
H    -0.925000000     5.166000000     2.112000000
C    -2.318000000     4.027000000    -0.771000000
C    -1.239000000     4.198000000    -1.542000000
H    -1.325000000     3.806000000    -2.552000000
C     0.006000000     4.620000000    -1.064000000
O     1.092000000     4.459000000    -1.940000000
C     1.764000000     3.224000000    -1.723000000
C     2.125000000     2.558000000    -3.037000000
C     1.535000000     2.917000000    -4.274000000
H     0.741000000     3.658000000    -4.226000000
C     3.087000000     1.487000000    -3.052000000
H     3.600000000     1.241000000    -2.126000000
O     2.931000000     3.599000000    -0.920000000
H     1.118000000     2.590000000    -1.097000000
C     0.084000000     5.050000000     0.272000000
C     1.467000000     5.333000000     0.936000000
H     1.302000000     5.846000000     1.886000000
H     2.090000000     5.963000000     0.299000000
C     2.126000000     4.030000000     1.338000000
C     2.865000000     3.259000000     0.421000000
C     3.580000000     2.169000000     0.859000000
H     4.145000000     1.655000000     0.085000000
C     3.535000000     1.828000000     2.233000000
O     4.287000000     0.673000000     2.614000000
C     3.529000000    -0.534000000     2.873000000
H     2.650000000    -0.371000000     2.233000000
C     4.172000000    -1.748000000     2.222000000
C     3.854000000    -3.039000000     2.621000000
H     3.092000000    -3.183000000     3.383000000
C     5.023000000    -1.581000000     1.130000000
H     5.162000000    -0.610000000     0.663000000
C     5.585000000    -2.603000000     0.439000000
O     6.434000000    -2.335000000    -0.554000000
C     5.293000000    -3.901000000     0.794000000
H     5.815000000    -4.716000000     0.298000000
C     4.369000000    -4.075000000     1.845000000
O     4.094000000    -5.405000000     2.219000000
C     3.064000000    -5.807000000     3.038000000
C     1.834000000    -5.894000000     2.445000000
H     1.657000000    -5.572000000     1.422000000
C     3.328000000    -6.252000000     4.357000000
H     4.352000000    -6.166000000     4.711000000
C     2.243000000    -6.748000000     5.061000000
H     2.284000000    -7.136000000     6.076000000
C     0.943000000    -6.767000000     4.503000000
H     0.201000000    -7.360000000     5.031000000
C     0.717000000    -6.365000000     3.155000000
O    -0.460000000    -6.625000000     2.542000000
C    -1.328000000    -5.639000000     2.110000000
C    -2.385000000    -5.924000000     1.189000000
H    -2.485000000    -6.965000000     0.892000000
C    -3.176000000    -4.859000000     0.801000000
O    -4.242000000    -5.106000000    -0.095000000
C    -5.130000000    -4.113000000    -0.501000000
C    -4.929000000    -3.627000000    -1.789000000
H    -4.132000000    -4.080000000    -2.371000000
C    -6.221000000    -3.670000000     0.284000000
H    -6.342000000    -3.944000000     1.329000000
C    -7.064000000    -2.715000000    -0.232000000
H    -7.911000000    -2.341000000     0.338000000
C    -6.711000000    -2.069000000    -1.462000000
H    -7.364000000    -1.267000000    -1.796000000
C    -5.702000000    -2.580000000    -2.251000000
O    -5.458000000    -1.971000000    -3.478000000
C    -4.831000000    -0.714000000    -3.590000000
C    -4.521000000    -0.176000000    -4.800000000
H    -4.611000000    -0.853000000    -5.645000000
C    -3.898000000     1.091000000    -4.938000000
O    -3.477000000     1.491000000    -6.203000000
C    -2.522000000     2.445000000    -6.426000000
C    -1.170000000     2.068000000    -6.239000000
H    -0.955000000     1.041000000    -5.954000000
C    -2.810000000     3.713000000    -6.992000000
H    -3.864000000     3.952000000    -7.114000000
C    -1.785000000     4.609000000    -7.392000000
H    -2.051000000     5.569000000    -7.828000000
C    -0.481000000     4.185000000    -7.275000000
H     0.239000000     4.986000000    -7.423000000
C    -0.167000000     2.936000000    -6.705000000
O     1.162000000     2.555000000    -6.610000000
C     1.815000000     2.210000000    -5.465000000
C     2.755000000     1.190000000    -5.415000000
H     2.981000000     0.695000000    -6.356000000
C     3.335000000     0.805000000    -4.203000000
O     4.199000000    -0.300000000    -4.236000000
C     5.233000000    -0.265000000    -3.314000000
C     6.320000000     0.603000000    -3.513000000
H     6.253000000     1.386000000    -4.264000000
C     7.397000000     0.458000000    -2.672000000
H     8.315000000     0.997000000    -2.888000000
C     7.462000000    -0.553000000    -1.662000000
H     8.294000000    -0.707000000    -0.978000000
C     6.313000000    -1.368000000    -1.482000000
C     5.190000000    -1.218000000    -2.284000000
H     4.396000000    -1.938000000    -2.105000000
C    -1.371000000    -1.655000000    -2.155000000
H    -2.284000000    -1.975000000    -2.651000000
C    -1.463000000    -0.945000000    -0.908000000
H    -2.382000000    -0.764000000    -0.356000000
C    -0.256000000    -0.535000000    -0.286000000
H    -0.332000000     0.016000000     0.644000000
C     0.929000000    -0.650000000    -0.970000000
H     1.812000000    -0.236000000    -0.490000000
C     0.975000000    -1.353000000    -2.158000000
H     1.923000000    -1.424000000    -2.687000000
C    -0.140000000    -1.828000000    -2.844000000
C    -0.058000000    -2.530000000    -4.157000000
O     1.096000000    -2.682000000    -4.575000000
O    -0.922000000    -3.141000000    -4.682000000
O     2.124000000    -4.528000000    -2.806000000
H     1.500000000    -4.285000000    -2.122000000
H     1.971000000    -3.893000000    -3.506000000
O     2.611000000    -5.995000000    -6.605000000
H     2.714000000    -5.610000000    -7.475000000
H     2.953000000    -6.884000000    -6.694000000
O    -3.462000000    -2.025000000    -7.779000000
H    -3.497000000    -1.190000000    -8.245000000
H    -4.131000000    -2.564000000    -8.203000000
O     1.831000000    -2.276000000    -9.794000000
H     1.682000000    -1.839000000    -8.955000000
H     2.765000000    -2.485000000    -9.792000000
O    -4.464000000    -4.838000000    -6.730000000
H    -3.821000000    -4.987000000    -7.423000000
H    -5.226000000    -4.477000000    -7.184000000
O    -1.292000000    -7.057000000    -7.665000000
H    -0.674000000    -6.475000000    -7.224000000
H    -2.069000000    -6.516000000    -7.809000000
O    -2.839000000    -4.890000000    -4.398000000
H    -2.121000000    -4.305000000    -4.639000000
H    -3.449000000    -4.838000000    -5.134000000
O     0.945000000    -1.341000000    -7.115000000
H     1.180000000    -1.449000000    -6.193000000
H     0.270000000    -2.002000000    -7.269000000
O    -1.334000000    -5.422000000    -2.071000000
H    -0.806000000    -6.091000000    -2.506000000
H    -1.974000000    -5.155000000    -2.731000000
O     3.064000000    -7.162000000    -2.201000000
H     2.858000000    -6.227000000    -2.178000000
H     3.353000000    -7.364000000    -1.311000000
O    -1.066000000    -3.113000000    -7.202000000
H    -1.835000000    -2.569000000    -7.373000000
H    -0.990000000    -3.128000000    -6.248000000
O     0.573000000    -3.762000000    -0.780000000
H    -0.296000000    -4.149000000    -0.881000000
H     0.423000000    -2.818000000    -0.840000000
O     0.064000000    -5.642000000    -5.902000000
H     0.236000000    -4.895000000    -5.328000000
H     0.932000000    -5.973000000    -6.132000000
O     0.365000000    -7.454000000    -3.996000000
H     1.055000000    -7.023000000    -3.491000000
H     0.044000000    -6.776000000    -4.590000000
O     5.442000000    -2.080000000    -7.102000000
H     6.087000000    -2.781000000    -7.006000000
H     4.832000000    -2.215000000    -6.377000000
O     3.494000000    -3.314000000    -5.628000000
H     3.068000000    -4.132000000    -5.886000000
H     2.771000000    -2.731000000    -5.395000000
O     2.802000000    -5.198000000    -9.271000000
H     3.712000000    -4.903000000    -9.248000000
H     2.293000000    -4.424000000    -9.029000000
O    -0.213000000    -4.242000000    -9.551000000
H    -0.457000000    -4.118000000    -8.634000000
H     0.353000000    -3.496000000    -9.751000000
O     5.074000000    -4.432000000    -3.354000000
H     4.126000000    -4.539000000    -3.277000000
H     5.193000000    -3.924000000    -4.156000000
