215
-1432.69019
C    -4.003000000    -2.909000000     1.901000000
H    -4.617000000    -2.018000000     1.797000000
C    -2.856000000    -2.654000000     2.679000000
C    -2.024000000    -3.705000000     2.999000000
H    -1.136000000    -3.496000000     3.590000000
C    -2.570000000    -1.163000000     3.031000000
O    -3.714000000    -0.322000000     3.288000000
H    -1.923000000    -0.736000000     2.251000000
O    -1.743000000    -1.189000000     4.238000000
C    -0.700000000    -0.283000000     4.368000000
C     0.566000000    -0.831000000     4.405000000
H     0.677000000    -1.907000000     4.300000000
C     1.633000000    -0.059000000     4.374000000
O     2.809000000    -0.645000000     3.947000000
C     1.574000000     1.355000000     4.523000000
C     2.715000000     2.254000000     4.259000000
H     2.569000000     3.167000000     4.840000000
C     2.879000000     2.651000000     2.816000000
C     2.279000000     3.824000000     2.277000000
H     1.739000000     4.533000000     2.900000000
H     3.645000000     1.769000000     4.562000000
C     0.287000000     1.910000000     4.657000000
H     0.189000000     2.983000000     4.800000000
C    -0.850000000     1.117000000     4.625000000
C    -2.273000000     1.646000000     4.808000000
H    -2.305000000     2.577000000     5.377000000
H    -2.947000000     1.010000000     5.385000000
C    -2.919000000     1.903000000     3.408000000
C    -2.742000000     3.168000000     2.689000000
H    -2.016000000     3.920000000     2.985000000
C    -3.768000000     0.970000000     2.845000000
C    -4.326000000     1.157000000     1.592000000
H    -4.951000000     0.354000000     1.210000000
C    -4.024000000     2.301000000     0.853000000
O    -4.309000000     2.282000000    -0.462000000
C    -3.240000000     2.056000000    -1.483000000
C    -3.768000000     1.189000000    -2.570000000
C    -3.162000000     1.072000000    -3.795000000
H    -2.341000000     1.775000000    -3.912000000
C    -4.858000000     0.409000000    -2.413000000
H    -5.495000000     0.584000000    -1.550000000
O    -2.947000000     3.357000000    -1.962000000
H    -2.392000000     1.577000000    -0.971000000
C    -3.314000000     3.356000000     1.397000000
C    -3.045000000     4.654000000     0.641000000
H    -2.879000000     5.404000000     1.418000000
H    -3.904000000     4.981000000     0.050000000
C    -1.810000000     4.631000000    -0.259000000
C    -0.538000000     5.168000000     0.170000000
H    -0.525000000     5.720000000     1.106000000
C    -1.837000000     3.961000000    -1.509000000
C    -0.711000000     3.885000000    -2.292000000
H    -0.666000000     3.292000000    -3.203000000
C     0.559000000     4.319000000    -1.804000000
O     1.662000000     4.012000000    -2.576000000
C     2.515000000     2.784000000    -2.111000000
C     3.035000000     1.898000000    -3.254000000
C     2.330000000     1.872000000    -4.451000000
H     1.468000000     2.530000000    -4.525000000
C     4.114000000     1.020000000    -3.080000000
H     4.677000000     1.028000000    -2.151000000
O     3.545000000     3.303000000    -1.251000000
H     1.920000000     2.114000000    -1.472000000
C     0.641000000     4.888000000    -0.509000000
C     1.935000000     5.306000000     0.217000000
H     1.890000000     6.198000000     0.845000000
H     2.653000000     5.571000000    -0.562000000
C     2.520000000     4.093000000     0.884000000
C     3.302000000     3.186000000     0.094000000
C     3.861000000     2.059000000     0.681000000
H     4.559000000     1.443000000     0.121000000
C     3.633000000     1.807000000     1.981000000
O     4.119000000     0.601000000     2.359000000
C     3.216000000    -0.487000000     2.517000000
H     2.307000000    -0.474000000     1.899000000
C     3.841000000    -1.810000000     2.142000000
C     3.097000000    -2.986000000     2.267000000
H     2.102000000    -2.881000000     2.692000000
C     5.064000000    -1.840000000     1.444000000
H     5.607000000    -0.909000000     1.307000000
C     5.588000000    -3.030000000     0.856000000
O     6.665000000    -3.035000000     0.055000000
C     4.837000000    -4.219000000     0.987000000
H     5.262000000    -5.099000000     0.511000000
C     3.661000000    -4.192000000     1.705000000
O     3.097000000    -5.421000000     1.896000000
C     2.197000000    -5.707000000     2.867000000
C     0.881000000    -5.760000000     2.400000000
H     0.657000000    -5.537000000     1.360000000
C     2.517000000    -5.734000000     4.174000000
H     3.455000000    -5.429000000     4.631000000
C     1.439000000    -6.037000000     5.007000000
H     1.611000000    -5.986000000     6.079000000
C     0.125000000    -6.190000000     4.541000000
H    -0.630000000    -6.429000000     5.286000000
C    -0.159000000    -5.986000000     3.237000000
O    -1.415000000    -6.068000000     2.679000000
C    -2.256000000    -4.964000000     2.394000000
C    -3.398000000    -5.199000000     1.636000000
H    -3.726000000    -6.181000000     1.304000000
C    -4.267000000    -4.146000000     1.369000000
O    -5.364000000    -4.319000000     0.562000000
C    -6.118000000    -3.273000000     0.091000000
C    -5.800000000    -2.748000000    -1.146000000
H    -4.955000000    -3.132000000    -1.712000000
C    -7.342000000    -2.889000000     0.742000000
H    -7.524000000    -3.275000000     1.741000000
C    -8.202000000    -2.016000000     0.120000000
H    -9.108000000    -1.688000000     0.624000000
C    -7.778000000    -1.379000000    -1.072000000
H    -8.315000000    -0.650000000    -1.673000000
C    -6.592000000    -1.799000000    -1.701000000
O    -6.372000000    -1.376000000    -2.995000000
C    -5.261000000    -0.571000000    -3.283000000
C    -4.560000000    -0.741000000    -4.460000000
H    -4.746000000    -1.511000000    -5.204000000
C    -3.500000000     0.055000000    -4.724000000
O    -2.848000000    -0.052000000    -5.917000000
C    -1.867000000     0.917000000    -6.242000000
C    -0.589000000     0.528000000    -6.052000000
H    -0.420000000    -0.428000000    -5.564000000
C    -2.167000000     2.210000000    -6.810000000
H    -3.189000000     2.580000000    -6.848000000
C    -1.148000000     3.059000000    -7.094000000
H    -1.365000000     4.106000000    -7.289000000
C     0.193000000     2.590000000    -7.097000000
H     1.075000000     3.134000000    -7.423000000
C     0.406000000     1.285000000    -6.629000000
O     1.674000000     0.742000000    -6.507000000
C     2.546000000     0.902000000    -5.414000000
C     3.634000000     0.021000000    -5.255000000
H     3.816000000    -0.761000000    -5.988000000
C     4.377000000     0.090000000    -4.074000000
O     5.342000000    -0.861000000    -3.969000000
C     6.199000000    -0.937000000    -2.848000000
C     7.252000000    -0.062000000    -2.716000000
H     7.169000000     0.800000000    -3.373000000
C     8.146000000    -0.169000000    -1.623000000
H     8.895000000     0.605000000    -1.477000000
C     7.987000000    -1.227000000    -0.694000000
H     8.632000000    -1.345000000     0.173000000
C     6.866000000    -2.095000000    -0.868000000
C     6.044000000    -1.995000000    -1.979000000
H     5.173000000    -2.643000000    -2.038000000
C    -1.619000000    -1.456000000    -1.824000000
H    -2.574000000    -1.886000000    -2.116000000
C    -1.534000000    -0.719000000    -0.631000000
H    -2.378000000    -0.567000000     0.037000000
C    -0.333000000    -0.196000000    -0.245000000
H    -0.058000000     0.105000000     0.759000000
C     0.827000000    -0.409000000    -1.071000000
H     1.732000000     0.111000000    -0.769000000
C     0.643000000    -1.037000000    -2.295000000
H     1.397000000    -1.088000000    -3.077000000
C    -0.533000000    -1.682000000    -2.657000000
C    -0.664000000    -2.613000000    -3.832000000
O     0.351000000    -2.907000000    -4.405000000
O    -1.702000000    -3.180000000    -4.119000000
O     5.613000000    -3.813000000    -5.403000000
H     5.645000000    -4.452000000    -4.691000000
H     4.851000000    -3.270000000    -5.203000000
O    -0.351000000    -2.356000000    -9.392000000
H    -1.163000000    -2.166000000    -8.923000000
H     0.195000000    -2.811000000    -8.751000000
O     2.836000000    -5.590000000    -6.765000000
H     3.221000000    -6.206000000    -7.388000000
H     3.570000000    -5.311000000    -6.218000000
O    -2.153000000    -6.280000000    -1.249000000
H    -2.006000000    -6.513000000    -2.166000000
H    -2.301000000    -5.335000000    -1.263000000
O    -5.642000000    -4.440000000    -7.048000000
H    -6.260000000    -3.709000000    -7.025000000
H    -6.119000000    -5.169000000    -6.652000000
O    -2.538000000    -1.821000000    -7.705000000
H    -2.608000000    -1.174000000    -7.003000000
H    -3.198000000    -1.553000000    -8.344000000
O    -2.870000000    -7.007000000    -6.020000000
H    -3.577000000    -7.012000000    -5.375000000
H    -2.108000000    -6.687000000    -5.538000000
O     1.114000000    -5.929000000    -4.138000000
H     1.000000000    -5.018000000    -3.866000000
H     1.579000000    -5.874000000    -4.973000000
O     1.720000000    -7.550000000    -0.732000000
H     1.596000000    -6.847000000    -1.369000000
H     2.000000000    -8.301000000    -1.256000000
O     0.672000000    -5.398000000    -7.994000000
H     1.419000000    -5.216000000    -7.424000000
H    -0.044000000    -4.882000000    -7.623000000
O    -5.680000000    -5.904000000    -2.586000000
H    -5.538000000    -6.653000000    -3.165000000
H    -5.225000000    -5.179000000    -3.016000000
O    -3.993000000    -4.282000000    -4.010000000
H    -3.966000000    -4.626000000    -4.902000000
H    -3.156000000    -3.830000000    -3.902000000
O     3.095000000    -3.057000000    -4.402000000
H     2.139000000    -3.038000000    -4.353000000
H     3.362000000    -3.586000000    -3.650000000
O    -1.203000000    -3.947000000    -6.772000000
H    -1.159000000    -3.914000000    -5.816000000
H    -1.629000000    -3.127000000    -7.021000000
O    -1.227000000    -7.310000000    -3.692000000
H    -1.318000000    -8.258000000    -3.789000000
H    -0.287000000    -7.149000000    -3.780000000
O     3.177000000     1.001000000    -8.981000000
H     3.731000000     0.235000000    -9.128000000
H     2.703000000     0.803000000    -8.174000000
O     1.346000000    -2.810000000    -6.894000000
H     2.033000000    -2.556000000    -6.278000000
H     0.612000000    -3.074000000    -6.338000000
O     3.463000000    -3.184000000    -8.759000000
H     3.528000000    -4.117000000    -8.963000000
H     2.692000000    -3.114000000    -8.197000000
O    -3.366000000    -5.083000000    -8.525000000
H    -2.523000000    -5.080000000    -8.072000000
H    -4.015000000    -5.021000000    -7.823000000
