215
-1445.50594
C    -3.606000000    -2.705000000     2.197000000
H    -4.307000000    -1.905000000     1.972000000
C    -2.357000000    -2.424000000     2.806000000
C    -1.458000000    -3.427000000     2.919000000
H    -0.482000000    -3.219000000     3.350000000
C    -2.024000000    -0.931000000     3.301000000
O    -3.216000000    -0.126000000     3.500000000
H    -1.478000000    -0.327000000     2.561000000
O    -1.210000000    -0.963000000     4.492000000
C    -0.128000000    -0.063000000     4.576000000
C     1.143000000    -0.598000000     4.413000000
H     1.357000000    -1.663000000     4.368000000
C     2.202000000     0.219000000     4.057000000
O     3.412000000    -0.294000000     3.764000000
C     2.056000000     1.635000000     4.233000000
C     3.152000000     2.605000000     3.896000000
H     3.017000000     3.620000000     4.274000000
C     3.320000000     2.734000000     2.390000000
C     2.751000000     3.873000000     1.744000000
H     2.243000000     4.609000000     2.362000000
H     4.088000000     2.223000000     4.310000000
C     0.806000000     2.114000000     4.584000000
H     0.658000000     3.178000000     4.747000000
C    -0.321000000     1.277000000     4.681000000
C    -1.731000000     1.937000000     4.778000000
H    -1.758000000     2.934000000     5.221000000
H    -2.462000000     1.327000000     5.313000000
C    -2.315000000     2.137000000     3.418000000
C    -2.135000000     3.312000000     2.640000000
H    -1.554000000     4.140000000     3.037000000
C    -3.169000000     1.118000000     2.934000000
C    -3.964000000     1.307000000     1.855000000
H    -4.524000000     0.415000000     1.587000000
C    -3.744000000     2.417000000     1.038000000
O    -4.382000000     2.522000000    -0.165000000
C    -3.513000000     2.234000000    -1.269000000
C    -4.278000000     1.361000000    -2.292000000
C    -4.029000000     1.501000000    -3.676000000
H    -3.279000000     2.227000000    -3.979000000
C    -5.213000000     0.407000000    -1.877000000
H    -5.350000000     0.319000000    -0.803000000
O    -3.046000000     3.504000000    -1.828000000
H    -2.651000000     1.747000000    -0.791000000
C    -2.925000000     3.458000000     1.490000000
C    -2.802000000     4.702000000     0.681000000
H    -2.536000000     5.479000000     1.400000000
H    -3.722000000     5.077000000     0.226000000
C    -1.614000000     4.573000000    -0.188000000
C    -0.366000000     5.030000000     0.146000000
H    -0.194000000     5.367000000     1.165000000
C    -1.809000000     4.026000000    -1.421000000
C    -0.818000000     3.908000000    -2.398000000
H    -1.086000000     3.513000000    -3.374000000
C     0.526000000     4.187000000    -1.980000000
O     1.542000000     3.775000000    -2.830000000
C     2.344000000     2.712000000    -2.281000000
C     2.498000000     1.599000000    -3.328000000
C     1.391000000     1.280000000    -4.086000000
H     0.443000000     1.785000000    -3.920000000
C     3.558000000     0.639000000    -3.290000000
H     4.434000000     0.718000000    -2.651000000
O     3.580000000     3.139000000    -1.763000000
H     1.782000000     2.217000000    -1.475000000
C     0.727000000     4.778000000    -0.721000000
C     2.132000000     5.220000000    -0.328000000
H     1.990000000     6.022000000     0.399000000
H     2.682000000     5.387000000    -1.256000000
C     2.851000000     4.057000000     0.385000000
C     3.574000000     3.139000000    -0.367000000
C     4.167000000     2.004000000     0.286000000
H     4.811000000     1.344000000    -0.290000000
C     4.125000000     1.868000000     1.624000000
O     4.673000000     0.746000000     2.102000000
C     3.773000000    -0.363000000     2.331000000
H     2.865000000    -0.294000000     1.714000000
C     4.278000000    -1.751000000     2.041000000
C     3.882000000    -2.906000000     2.648000000
H     3.223000000    -2.841000000     3.509000000
C     5.064000000    -1.850000000     0.871000000
H     5.321000000    -0.929000000     0.355000000
C     5.671000000    -3.082000000     0.550000000
O     6.710000000    -3.151000000    -0.338000000
C     5.363000000    -4.264000000     1.248000000
H     5.837000000    -5.209000000     0.993000000
C     4.392000000    -4.177000000     2.260000000
O     3.878000000    -5.307000000     2.954000000
C     2.579000000    -5.402000000     3.320000000
C     1.520000000    -5.517000000     2.466000000
H     1.667000000    -5.471000000     1.390000000
C     2.389000000    -5.501000000     4.724000000
H     3.247000000    -5.451000000     5.390000000
C     1.102000000    -5.679000000     5.235000000
H     0.901000000    -5.729000000     6.303000000
C    -0.012000000    -5.672000000     4.367000000
H    -1.012000000    -5.971000000     4.671000000
C     0.272000000    -5.664000000     3.021000000
O    -0.764000000    -5.725000000     2.192000000
C    -1.717000000    -4.673000000     2.306000000
C    -2.992000000    -4.928000000     1.834000000
H    -3.270000000    -5.876000000     1.380000000
C    -3.885000000    -3.945000000     1.657000000
O    -5.049000000    -4.243000000     0.994000000
C    -6.021000000    -3.365000000     0.596000000
C    -5.776000000    -2.617000000    -0.546000000
H    -4.847000000    -2.868000000    -1.052000000
C    -7.249000000    -3.365000000     1.171000000
H    -7.427000000    -3.974000000     2.053000000
C    -8.200000000    -2.502000000     0.662000000
H    -9.167000000    -2.441000000     1.154000000
C    -8.041000000    -1.875000000    -0.577000000
H    -8.869000000    -1.439000000    -1.130000000
C    -6.778000000    -1.880000000    -1.173000000
O    -6.678000000    -1.371000000    -2.423000000
C    -5.865000000    -0.400000000    -2.828000000
C    -5.484000000    -0.309000000    -4.134000000
H    -5.836000000    -1.020000000    -4.877000000
C    -4.678000000     0.761000000    -4.597000000
O    -4.251000000     0.910000000    -5.907000000
C    -2.957000000     1.265000000    -6.184000000
C    -1.915000000     0.479000000    -5.633000000
H    -2.080000000    -0.394000000    -5.008000000
C    -2.720000000     2.404000000    -6.929000000
H    -3.531000000     2.972000000    -7.380000000
C    -1.419000000     2.694000000    -7.406000000
H    -1.273000000     3.566000000    -8.038000000
C    -0.398000000     1.838000000    -7.035000000
H     0.568000000     2.072000000    -7.477000000
C    -0.651000000     0.799000000    -6.116000000
O     0.334000000    -0.101000000    -5.814000000
C     1.348000000     0.196000000    -4.936000000
C     2.475000000    -0.616000000    -4.988000000
H     2.502000000    -1.561000000    -5.526000000
C     3.543000000    -0.497000000    -4.089000000
O     4.531000000    -1.414000000    -4.189000000
C     5.610000000    -1.358000000    -3.332000000
C     6.698000000    -0.441000000    -3.493000000
H     6.623000000     0.302000000    -4.282000000
C     7.792000000    -0.487000000    -2.610000000
H     8.682000000     0.134000000    -2.546000000
C     7.764000000    -1.438000000    -1.552000000
H     8.637000000    -1.408000000    -0.905000000
C     6.749000000    -2.370000000    -1.421000000
C     5.669000000    -2.294000000    -2.287000000
H     4.939000000    -3.095000000    -2.203000000
C    -0.196000000    -0.321000000    -1.803000000
H    -0.469000000     0.201000000    -2.716000000
C    -0.122000000     0.551000000    -0.719000000
H    -0.344000000     1.593000000    -0.937000000
C     0.278000000     0.121000000     0.547000000
H     0.321000000     0.798000000     1.398000000
C     0.499000000    -1.247000000     0.760000000
H     0.563000000    -1.581000000     1.793000000
C     0.461000000    -2.125000000    -0.294000000
H     0.559000000    -3.189000000    -0.094000000
C     0.079000000    -1.716000000    -1.594000000
C    -0.139000000    -2.740000000    -2.734000000
O     0.262000000    -3.922000000    -2.674000000
O    -0.899000000    -2.403000000    -3.601000000
O    -1.337000000    -5.382000000    -4.598000000
H    -0.856000000    -4.760000000    -4.051000000
H    -1.707000000    -6.010000000    -3.977000000
O    -5.369000000    -2.541000000    -6.786000000
H    -4.965000000    -2.568000000    -7.653000000
H    -4.658000000    -2.761000000    -6.184000000
O     4.892000000    -3.088000000    -7.054000000
H     5.449000000    -3.856000000    -6.934000000
H     4.404000000    -3.015000000    -6.234000000
O    -0.457000000    -2.923000000    -6.750000000
H    -0.552000000    -1.976000000    -6.651000000
H    -0.759000000    -3.283000000    -5.916000000
O     0.347000000    -5.807000000    -0.755000000
H     0.194000000    -4.951000000    -1.155000000
H    -0.314000000    -5.871000000    -0.065000000
O     3.071000000    -8.974000000    -5.453000000
H     2.492000000    -8.321000000    -5.059000000
H     3.169000000    -8.689000000    -6.362000000
O    -3.057000000    -7.773000000    -3.643000000
H    -3.918000000    -7.917000000    -4.037000000
H    -3.199000000    -7.898000000    -2.705000000
O     5.113000000    -6.182000000    -2.870000000
H     5.067000000    -6.562000000    -1.993000000
H     4.371000000    -5.578000000    -2.908000000
O     2.159000000    -7.579000000    -1.924000000
H     1.477000000    -7.078000000    -1.476000000
H     2.248000000    -7.153000000    -2.776000000
O     5.005000000     0.435000000    -7.068000000
H     4.792000000     0.272000000    -6.150000000
H     5.190000000     1.374000000    -7.109000000
O    -3.052000000    -3.213000000    -5.112000000
H    -3.433000000    -3.899000000    -4.564000000
H    -2.348000000    -2.843000000    -4.579000000
O    -1.461000000    -9.695000000    -4.821000000
H    -1.793000000    -9.627000000    -5.716000000
H    -1.857000000    -8.955000000    -4.361000000
O    -0.511000000    -6.766000000    -7.438000000
H    -0.974000000    -7.603000000    -7.469000000
H    -0.702000000    -6.419000000    -6.567000000
O     1.681000000    -6.815000000    -4.510000000
H     2.210000000    -6.144000000    -4.941000000
H     0.846000000    -6.383000000    -4.330000000
O     2.045000000    -4.340000000    -6.290000000
H     1.150000000    -4.008000000    -6.345000000
H     2.465000000    -4.031000000    -7.093000000
O    -0.114000000    -4.603000000    -9.047000000
H    -0.100000000    -5.480000000    -8.664000000
H    -0.310000000    -4.023000000    -8.312000000
O    -3.085000000    -8.203000000    -0.606000000
H    -2.438000000    -8.873000000    -0.385000000
H    -3.661000000    -8.165000000     0.158000000
O     2.971000000    -4.553000000    -3.301000000
H     3.182000000    -4.130000000    -4.133000000
H     2.051000000    -4.337000000    -3.149000000
O    -3.418000000    -4.729000000    -7.989000000
H    -4.039000000    -5.381000000    -7.664000000
H    -2.896000000    -4.492000000    -7.223000000
