215
-1445.56188
C    -3.232000000    -2.902000000     2.164000000
H    -3.903000000    -2.170000000     1.722000000
C    -2.290000000    -2.433000000     3.172000000
C    -1.516000000    -3.421000000     3.779000000
H    -0.851000000    -3.107000000     4.579000000
C    -2.195000000    -0.911000000     3.370000000
O    -3.450000000    -0.206000000     3.423000000
H    -1.600000000    -0.452000000     2.566000000
O    -1.624000000    -0.539000000     4.685000000
C    -0.568000000     0.290000000     4.612000000
C     0.657000000    -0.301000000     4.478000000
H     0.747000000    -1.383000000     4.514000000
C     1.837000000     0.549000000     4.219000000
O     2.998000000    -0.069000000     3.867000000
C     1.709000000     1.978000000     4.245000000
C     2.902000000     2.971000000     3.957000000
H     2.763000000     3.946000000     4.429000000
C     3.188000000     3.156000000     2.469000000
C     2.396000000     4.068000000     1.696000000
H     1.801000000     4.740000000     2.310000000
H     3.773000000     2.558000000     4.471000000
C     0.428000000     2.512000000     4.404000000
H     0.336000000     3.595000000     4.389000000
C    -0.679000000     1.674000000     4.525000000
C    -2.072000000     2.275000000     4.631000000
H    -1.988000000     3.315000000     4.953000000
H    -2.618000000     1.698000000     5.379000000
C    -2.839000000     2.176000000     3.301000000
C    -2.814000000     3.377000000     2.537000000
H    -2.446000000     4.313000000     2.949000000
C    -3.479000000     1.053000000     2.804000000
C    -4.070000000     1.050000000     1.566000000
H    -4.633000000     0.161000000     1.293000000
C    -4.059000000     2.203000000     0.813000000
O    -4.543000000     2.243000000    -0.516000000
C    -3.663000000     2.057000000    -1.661000000
C    -4.217000000     1.079000000    -2.669000000
C    -3.952000000     1.230000000    -4.008000000
H    -3.374000000     2.095000000    -4.322000000
C    -4.909000000    -0.037000000    -2.231000000
H    -5.101000000    -0.132000000    -1.166000000
O    -3.418000000     3.368000000    -2.208000000
H    -2.644000000     1.803000000    -1.334000000
C    -3.361000000     3.374000000     1.250000000
C    -3.353000000     4.653000000     0.447000000
H    -3.454000000     5.511000000     1.115000000
H    -4.285000000     4.647000000    -0.122000000
C    -2.151000000     4.557000000    -0.532000000
C    -0.886000000     4.976000000    -0.138000000
H    -0.730000000     5.649000000     0.701000000
C    -2.276000000     3.899000000    -1.798000000
C    -1.173000000     3.687000000    -2.599000000
H    -1.266000000     3.071000000    -3.490000000
C     0.046000000     4.022000000    -2.098000000
O     1.103000000     3.619000000    -2.901000000
C     1.988000000     2.553000000    -2.393000000
C     2.386000000     1.546000000    -3.500000000
C     1.369000000     1.046000000    -4.370000000
H     0.330000000     1.163000000    -4.072000000
C     3.675000000     1.059000000    -3.586000000
H     4.431000000     1.360000000    -2.865000000
O     3.140000000     3.142000000    -1.708000000
H     1.453000000     2.048000000    -1.575000000
C     0.245000000     4.696000000    -0.892000000
C     1.647000000     5.231000000    -0.431000000
H     1.583000000     6.087000000     0.245000000
H     2.273000000     5.605000000    -1.244000000
C     2.444000000     4.117000000     0.309000000
C     3.169000000     3.196000000    -0.375000000
C     3.970000000     2.288000000     0.279000000
H     4.579000000     1.573000000    -0.269000000
C     3.922000000     2.248000000     1.674000000
O     4.348000000     0.990000000     2.246000000
C     3.409000000    -0.097000000     2.510000000
H     2.598000000     0.150000000     1.809000000
C     3.888000000    -1.479000000     2.220000000
C     3.490000000    -2.649000000     2.871000000
H     2.861000000    -2.641000000     3.758000000
C     4.801000000    -1.616000000     1.154000000
H     5.278000000    -0.772000000     0.663000000
C     5.176000000    -2.833000000     0.610000000
O     6.079000000    -2.942000000    -0.501000000
C     4.745000000    -3.967000000     1.319000000
H     5.068000000    -4.936000000     0.949000000
C     3.895000000    -3.879000000     2.340000000
O     3.729000000    -5.010000000     3.046000000
C     2.620000000    -5.212000000     3.937000000
C     1.306000000    -5.297000000     3.552000000
H     1.028000000    -5.167000000     2.509000000
C     2.936000000    -5.484000000     5.212000000
H     3.990000000    -5.624000000     5.437000000
C     2.052000000    -5.784000000     6.181000000
H     2.468000000    -6.012000000     7.159000000
C     0.665000000    -5.800000000     5.856000000
H    -0.026000000    -5.870000000     6.692000000
C     0.305000000    -5.538000000     4.540000000
O    -0.988000000    -5.711000000     4.230000000
C    -1.580000000    -4.749000000     3.426000000
C    -2.603000000    -5.142000000     2.539000000
H    -2.812000000    -6.202000000     2.414000000
C    -3.341000000    -4.207000000     1.802000000
O    -4.460000000    -4.647000000     1.142000000
C    -5.280000000    -3.653000000     0.617000000
C    -5.180000000    -3.364000000    -0.705000000
H    -4.501000000    -3.940000000    -1.329000000
C    -6.297000000    -3.037000000     1.338000000
H    -6.390000000    -3.231000000     2.404000000
C    -7.226000000    -2.184000000     0.705000000
H    -7.973000000    -1.639000000     1.277000000
C    -7.089000000    -1.888000000    -0.635000000
H    -7.837000000    -1.261000000    -1.114000000
C    -6.050000000    -2.503000000    -1.363000000
O    -5.920000000    -2.191000000    -2.693000000
C    -5.228000000    -1.014000000    -3.126000000
C    -4.996000000    -0.889000000    -4.492000000
H    -5.348000000    -1.643000000    -5.191000000
C    -4.266000000     0.215000000    -4.953000000
O    -4.003000000     0.438000000    -6.282000000
C    -2.693000000     0.681000000    -6.652000000
C    -1.608000000    -0.034000000    -6.178000000
H    -1.763000000    -0.873000000    -5.504000000
C    -2.466000000     1.709000000    -7.574000000
H    -3.313000000     2.269000000    -7.961000000
C    -1.200000000     1.919000000    -8.120000000
H    -1.072000000     2.572000000    -8.979000000
C    -0.109000000     1.217000000    -7.576000000
H     0.945000000     1.418000000    -7.750000000
C    -0.256000000     0.220000000    -6.657000000
O     0.837000000    -0.521000000    -6.174000000
C     1.752000000     0.124000000    -5.370000000
C     3.031000000    -0.272000000    -5.474000000
H     3.274000000    -0.945000000    -6.293000000
C     4.021000000     0.131000000    -4.563000000
O     5.317000000    -0.371000000    -4.640000000
C     6.025000000    -0.750000000    -3.530000000
C     7.271000000    -0.132000000    -3.357000000
H     7.665000000     0.467000000    -4.174000000
C     7.995000000    -0.344000000    -2.216000000
H     8.994000000     0.050000000    -2.046000000
C     7.604000000    -1.354000000    -1.297000000
H     8.291000000    -1.675000000    -0.518000000
C     6.344000000    -1.941000000    -1.406000000
C     5.506000000    -1.583000000    -2.499000000
H     4.602000000    -2.144000000    -2.722000000
C    -0.985000000    -1.436000000    -1.859000000
H    -1.829000000    -1.947000000    -2.315000000
C    -1.265000000    -0.425000000    -0.909000000
H    -2.285000000    -0.137000000    -0.671000000
C    -0.195000000     0.150000000    -0.279000000
H    -0.385000000     0.979000000     0.405000000
C     1.104000000    -0.118000000    -0.638000000
H     1.957000000     0.369000000    -0.174000000
C     1.372000000    -1.247000000    -1.460000000
H     2.381000000    -1.507000000    -1.771000000
C     0.266000000    -1.957000000    -2.059000000
C     0.525000000    -3.087000000    -3.072000000
O     1.468000000    -3.837000000    -2.845000000
O    -0.365000000    -3.479000000    -3.886000000
O    -1.651000000    -5.860000000    -6.004000000
H    -2.126000000    -5.227000000    -5.465000000
H    -0.746000000    -5.801000000    -5.701000000
O    -1.404000000    -1.823000000    -8.834000000
H    -1.016000000    -2.161000000    -8.027000000
H    -0.656000000    -1.549000000    -9.364000000
O    -3.366000000    -8.151000000    -5.552000000
H    -2.571000000    -7.620000000    -5.504000000
H    -3.325000000    -8.713000000    -4.778000000
O     2.348000000    -6.533000000     0.385000000
H     2.122000000    -5.607000000     0.299000000
H     2.237000000    -6.890000000    -0.496000000
O     4.722000000    -6.217000000    -7.071000000
H     4.914000000    -6.643000000    -6.236000000
H     4.023000000    -6.746000000    -7.454000000
O     0.010000000    -3.123000000    -6.750000000
H     0.436000000    -2.275000000    -6.623000000
H    -0.226000000    -3.407000000    -5.867000000
O    -3.326000000    -4.345000000    -8.757000000
H    -2.790000000    -3.592000000    -8.507000000
H    -2.750000000    -4.877000000    -9.306000000
O     1.250000000    -4.128000000    -0.187000000
H     0.713000000    -3.426000000     0.181000000
H     1.359000000    -3.890000000    -1.108000000
O    -3.185000000    -6.150000000    -1.526000000
H    -3.806000000    -6.878000000    -1.537000000
H    -3.013000000    -5.996000000    -0.597000000
O     5.214000000    -7.044000000    -2.391000000
H     5.089000000    -7.827000000    -1.856000000
H     5.905000000    -6.555000000    -1.944000000
O     0.684000000    -9.361000000    -2.062000000
H     1.177000000    -8.571000000    -2.285000000
H     1.355000000   -10.015000000    -1.866000000
O    -2.747000000    -4.286000000    -3.729000000
H    -1.890000000    -3.860000000    -3.720000000
H    -2.737000000    -4.862000000    -2.965000000
O     1.279000000    -6.520000000    -2.189000000
H     0.887000000    -6.502000000    -3.062000000
H     1.395000000    -5.598000000    -1.960000000
O     0.434000000    -5.170000000    -8.942000000
H     0.332000000    -4.509000000    -9.627000000
H     0.331000000    -4.684000000    -8.123000000
O     0.798000000    -5.734000000    -4.842000000
H     1.391000000    -5.399000000    -5.515000000
H     0.641000000    -4.984000000    -4.268000000
O     2.292000000    -8.028000000    -5.016000000
H     1.765000000    -7.230000000    -4.972000000
H     1.764000000    -8.635000000    -5.537000000
O     2.823000000    -4.608000000    -6.092000000
H     3.211000000    -4.399000000    -5.242000000
H     3.532000000    -5.026000000    -6.582000000
O     3.952000000    -4.756000000    -3.516000000
H     3.033000000    -4.693000000    -3.257000000
H     4.298000000    -5.480000000    -2.993000000
O    -5.298000000    -5.019000000    -4.028000000
H    -5.073000000    -5.948000000    -4.079000000
H    -4.454000000    -4.572000000    -3.969000000
