215
-1445.30905
C     2.222000000     2.035000000    -4.081000000
H     2.375000000     1.046000000    -4.504000000
C     2.900000000     2.486000000    -2.902000000
C     2.698000000     3.763000000    -2.427000000
H     3.097000000     4.043000000    -1.455000000
C     3.543000000     1.415000000    -1.990000000
O     4.082000000     0.355000000    -2.819000000
H     2.717000000     0.992000000    -1.400000000
O     4.513000000     2.020000000    -1.054000000
C     4.511000000     1.532000000     0.226000000
C     3.873000000     2.297000000     1.142000000
H     3.400000000     3.223000000     0.825000000
C     3.622000000     1.877000000     2.423000000
O     2.681000000     2.499000000     3.147000000
C     4.047000000     0.598000000     2.793000000
C     3.692000000    -0.021000000     4.096000000
H     4.445000000    -0.799000000     4.242000000
C     2.340000000    -0.652000000     4.210000000
C     2.203000000    -1.988000000     3.917000000
H     3.067000000    -2.581000000     3.629000000
H     3.872000000     0.635000000     4.951000000
C     4.684000000    -0.201000000     1.881000000
H     4.947000000    -1.180000000     2.272000000
C     4.947000000     0.244000000     0.545000000
C     5.557000000    -0.762000000    -0.436000000
H     6.235000000    -1.438000000     0.090000000
H     6.254000000    -0.149000000    -1.012000000
C     4.557000000    -1.496000000    -1.295000000
C     4.080000000    -2.710000000    -0.825000000
H     4.407000000    -3.163000000     0.108000000
C     3.929000000    -0.949000000    -2.428000000
C     2.954000000    -1.675000000    -3.110000000
H     2.476000000    -1.261000000    -3.994000000
C     2.507000000    -2.850000000    -2.641000000
O     1.377000000    -3.499000000    -3.320000000
C     0.113000000    -3.461000000    -2.660000000
C    -1.093000000    -3.257000000    -3.596000000
C    -2.347000000    -3.810000000    -3.291000000
H    -2.461000000    -4.525000000    -2.480000000
C    -0.987000000    -2.257000000    -4.545000000
H    -0.080000000    -1.673000000    -4.677000000
O    -0.064000000    -4.716000000    -1.919000000
H     0.150000000    -2.741000000    -1.829000000
C     3.066000000    -3.381000000    -1.506000000
C     2.734000000    -4.744000000    -0.895000000
H     3.559000000    -5.256000000    -0.395000000
H     2.580000000    -5.412000000    -1.745000000
C     1.529000000    -4.681000000     0.034000000
C     1.697000000    -4.532000000     1.377000000
H     2.692000000    -4.572000000     1.815000000
C     0.202000000    -4.602000000    -0.565000000
C    -0.895000000    -4.411000000     0.300000000
H    -1.889000000    -4.471000000    -0.136000000
C    -0.734000000    -4.177000000     1.630000000
O    -1.806000000    -3.847000000     2.358000000
C    -1.908000000    -2.394000000     2.707000000
C    -3.378000000    -1.980000000     2.610000000
C    -4.159000000    -2.474000000     1.567000000
H    -3.711000000    -3.126000000     0.822000000
C    -3.843000000    -0.903000000     3.460000000
H    -3.180000000    -0.528000000     4.235000000
O    -1.462000000    -2.313000000     4.111000000
H    -1.290000000    -1.730000000     2.084000000
C     0.571000000    -4.300000000     2.183000000
C     0.828000000    -4.083000000     3.674000000
H     1.753000000    -4.625000000     3.884000000
H    -0.040000000    -4.397000000     4.257000000
C     0.967000000    -2.608000000     4.006000000
C    -0.149000000    -1.821000000     4.193000000
C    -0.057000000    -0.468000000     4.473000000
H    -0.935000000     0.174000000     4.483000000
C     1.174000000     0.100000000     4.417000000
O     1.212000000     1.458000000     4.480000000
C     1.310000000     2.124000000     3.234000000
H     1.046000000     1.438000000     2.416000000
C     0.441000000     3.410000000     3.138000000
C     0.946000000     4.557000000     2.577000000
H     2.013000000     4.605000000     2.373000000
C    -0.936000000     3.342000000     3.279000000
H    -1.438000000     2.479000000     3.710000000
C    -1.709000000     4.496000000     3.058000000
O    -3.008000000     4.520000000     3.418000000
C    -1.135000000     5.675000000     2.598000000
H    -1.788000000     6.496000000     2.314000000
C     0.211000000     5.667000000     2.312000000
O     0.806000000     6.850000000     1.790000000
C     1.795000000     6.805000000     0.864000000
C     1.482000000     6.279000000    -0.372000000
H     0.553000000     5.748000000    -0.562000000
C     3.023000000     7.416000000     1.048000000
H     3.195000000     7.979000000     1.962000000
C     3.939000000     7.521000000    -0.023000000
H     4.927000000     7.973000000    -0.044000000
C     3.512000000     7.057000000    -1.286000000
H     4.173000000     7.216000000    -2.134000000
C     2.339000000     6.449000000    -1.507000000
O     1.992000000     6.061000000    -2.763000000
C     2.015000000     4.692000000    -3.162000000
C     1.326000000     4.277000000    -4.309000000
H     0.729000000     4.994000000    -4.866000000
C     1.468000000     2.965000000    -4.836000000
O     0.793000000     2.729000000    -6.007000000
C     0.553000000     1.496000000    -6.373000000
C    -0.652000000     0.882000000    -6.022000000
H    -1.326000000     1.404000000    -5.348000000
C     1.541000000     0.768000000    -7.142000000
H     2.521000000     1.219000000    -7.279000000
C     1.298000000    -0.480000000    -7.676000000
H     1.996000000    -0.998000000    -8.329000000
C     0.034000000    -1.006000000    -7.428000000
H    -0.122000000    -2.014000000    -7.806000000
C    -0.907000000    -0.344000000    -6.674000000
O    -2.078000000    -0.932000000    -6.275000000
C    -2.103000000    -2.015000000    -5.376000000
C    -3.333000000    -2.544000000    -5.078000000
H    -4.193000000    -2.387000000    -5.724000000
C    -3.437000000    -3.394000000    -4.026000000
O    -4.694000000    -3.931000000    -3.869000000
C    -5.329000000    -4.246000000    -2.644000000
C    -5.680000000    -3.165000000    -1.856000000
H    -5.577000000    -2.145000000    -2.216000000
C    -5.503000000    -5.551000000    -2.154000000
H    -5.252000000    -6.414000000    -2.766000000
C    -5.900000000    -5.704000000    -0.825000000
H    -5.950000000    -6.720000000    -0.441000000
C    -6.156000000    -4.604000000    -0.017000000
H    -6.380000000    -4.757000000     1.036000000
C    -6.060000000    -3.318000000    -0.555000000
O    -6.197000000    -2.164000000     0.241000000
C    -5.442000000    -1.884000000     1.374000000
C    -5.942000000    -0.931000000     2.269000000
H    -6.981000000    -0.625000000     2.176000000
C    -5.154000000    -0.498000000     3.329000000
O    -5.678000000     0.592000000     4.073000000
C    -4.980000000     1.605000000     4.581000000
C    -4.940000000     1.829000000     5.945000000
H    -5.515000000     1.142000000     6.559000000
C    -4.247000000     2.880000000     6.485000000
H    -4.298000000     2.989000000     7.565000000
C    -3.732000000     3.818000000     5.637000000
H    -3.052000000     4.591000000     5.987000000
C    -3.700000000     3.641000000     4.255000000
C    -4.354000000     2.540000000     3.770000000
H    -4.347000000     2.419000000     2.690000000
C    -2.828000000     0.162000000    -0.582000000
H    -3.801000000    -0.322000000    -0.561000000
C    -1.689000000    -0.635000000    -0.412000000
H    -1.729000000    -1.721000000    -0.453000000
C    -0.420000000    -0.080000000    -0.189000000
H     0.493000000    -0.723000000     0.006000000
C    -0.285000000     1.305000000    -0.135000000
H     0.726000000     1.636000000     0.090000000
C    -1.424000000     2.140000000    -0.269000000
H    -1.277000000     3.210000000    -0.143000000
C    -2.711000000     1.547000000    -0.457000000
C    -3.830000000     2.455000000    -0.605000000
O    -3.641000000     3.574000000    -0.684000000
O    -4.989000000     1.970000000    -0.492000000
O    -8.294000000     1.808000000    -3.358000000
H    -7.557000000     1.228000000    -3.546000000
H    -7.922000000     2.498000000    -2.809000000
O    -1.958000000     4.787000000    -4.497000000
H    -1.357000000     4.460000000    -5.166000000
H    -2.722000000     4.214000000    -4.561000000
O    -6.312000000     0.302000000    -4.050000000
H    -5.507000000     0.774000000    -4.265000000
H    -6.285000000     0.202000000    -3.098000000
O    -4.884000000     0.877000000    -6.785000000
H    -4.042000000     0.684000000    -6.373000000
H    -5.316000000     1.477000000    -6.177000000
O    -6.666000000     3.620000000    -1.707000000
H    -5.865000000     3.177000000    -1.426000000
H    -6.438000000     4.550000000    -1.704000000
O    -5.345000000     6.743000000    -3.677000000
H    -5.305000000     7.688000000    -3.819000000
H    -4.660000000     6.568000000    -3.031000000
O    -6.386000000     6.578000000    -0.364000000
H    -5.800000000     6.230000000     0.307000000
H    -5.801000000     6.932000000    -1.034000000
O    -4.556000000     4.253000000    -4.644000000
H    -4.785000000     5.096000000    -4.252000000
H    -5.129000000     4.181000000    -5.408000000
O    -8.892000000     6.947000000    -1.202000000
H    -8.007000000     6.821000000    -0.860000000
H    -8.762000000     7.351000000    -2.060000000
O    -3.321000000     5.635000000    -2.099000000
H    -3.384000000     4.940000000    -1.443000000
H    -2.669000000     5.316000000    -2.723000000
O    -6.807000000     2.749000000     1.657000000
H    -6.351000000     3.565000000     1.862000000
H    -6.222000000     2.293000000     1.052000000
O    -4.788000000     4.869000000     1.293000000
H    -4.432000000     4.372000000     0.556000000
H    -4.017000000     5.146000000     1.788000000
O    -9.069000000     1.290000000     2.609000000
H    -8.750000000     0.559000000     3.140000000
H    -8.275000000     1.747000000     2.330000000
O    -6.481000000     0.063000000    -1.491000000
H    -5.955000000     0.814000000    -1.216000000
H    -6.408000000    -0.559000000    -0.767000000
O    -8.792000000     4.137000000     0.348000000
H    -8.080000000     3.616000000     0.719000000
H    -8.353000000     4.786000000    -0.201000000
O    -9.404000000     0.841000000    -0.576000000
H    -8.698000000     1.081000000    -1.176000000
H    -9.326000000     1.463000000     0.147000000
O    -8.774000000     4.858000000     2.938000000
H    -8.689000000     4.509000000     2.051000000
H    -9.238000000     5.687000000     2.826000000
O    -3.980000000     7.852000000     2.297000000
H    -3.558000000     8.345000000     3.002000000
H    -4.812000000     7.564000000     2.671000000
O    -3.541000000     1.815000000    -4.101000000
H    -2.885000000     1.619000000    -3.432000000
H    -3.849000000     2.695000000    -3.883000000
