215
-1471.69864
C    -0.057000000    -4.427000000    -0.494000000
H    -0.674000000    -3.706000000    -1.024000000
C    -0.045000000    -4.491000000     0.891000000
C     0.871000000    -5.216000000     1.568000000
H     0.955000000    -5.176000000     2.651000000
C    -1.016000000    -3.608000000     1.715000000
O    -2.359000000    -4.006000000     1.381000000
H    -0.839000000    -2.549000000     1.474000000
O    -0.901000000    -3.760000000     3.140000000
C    -0.890000000    -2.585000000     3.827000000
C     0.388000000    -2.079000000     4.118000000
H     1.270000000    -2.625000000     3.794000000
C     0.542000000    -0.797000000     4.602000000
O     1.824000000    -0.335000000     4.698000000
C    -0.569000000    -0.018000000     4.993000000
C    -0.539000000     1.419000000     5.564000000
H    -1.495000000     1.583000000     6.064000000
C    -0.314000000     2.402000000     4.409000000
C    -1.464000000     3.047000000     3.868000000
H    -2.466000000     2.786000000     4.201000000
H     0.226000000     1.561000000     6.331000000
C    -1.814000000    -0.532000000     4.654000000
H    -2.676000000     0.103000000     4.845000000
C    -1.999000000    -1.808000000     4.115000000
C    -3.331000000    -2.457000000     3.909000000
H    -4.068000000    -2.106000000     4.633000000
H    -3.370000000    -3.543000000     4.017000000
C    -3.696000000    -2.113000000     2.432000000
C    -4.413000000    -0.946000000     2.173000000
H    -4.691000000    -0.239000000     2.951000000
C    -3.249000000    -2.933000000     1.352000000
C    -3.606000000    -2.614000000     0.056000000
H    -3.258000000    -3.256000000    -0.749000000
C    -4.438000000    -1.482000000    -0.190000000
O    -4.731000000    -1.150000000    -1.456000000
C    -3.784000000    -0.270000000    -2.107000000
C    -3.390000000    -0.676000000    -3.494000000
C    -3.162000000     0.297000000    -4.434000000
H    -3.123000000     1.336000000    -4.118000000
C    -3.083000000    -2.003000000    -3.813000000
H    -3.239000000    -2.813000000    -3.105000000
O    -4.475000000     0.979000000    -2.032000000
H    -2.874000000    -0.267000000    -1.490000000
C    -4.813000000    -0.576000000     0.881000000
C    -5.568000000     0.658000000     0.626000000
H    -6.172000000     0.946000000     1.490000000
H    -6.278000000     0.441000000    -0.175000000
C    -4.656000000     1.828000000     0.276000000
C    -4.179000000     2.607000000     1.346000000
H    -4.335000000     2.375000000     2.397000000
C    -4.106000000     1.870000000    -1.030000000
C    -3.137000000     2.745000000    -1.298000000
H    -2.727000000     2.707000000    -2.304000000
C    -2.706000000     3.633000000    -0.323000000
O    -1.690000000     4.386000000    -0.765000000
C    -0.375000000     4.077000000    -0.257000000
C     0.676000000     4.285000000    -1.362000000
C     0.491000000     3.823000000    -2.700000000
H    -0.475000000     3.369000000    -2.909000000
C     1.977000000     4.800000000    -1.070000000
H     2.213000000     5.181000000    -0.080000000
O     0.029000000     4.768000000     0.989000000
H    -0.318000000     2.996000000    -0.060000000
C    -3.198000000     3.540000000     0.975000000
C    -2.684000000     4.454000000     2.154000000
H    -3.407000000     4.685000000     2.940000000
H    -2.544000000     5.399000000     1.625000000
C    -1.423000000     3.820000000     2.763000000
C    -0.172000000     4.042000000     2.172000000
C     1.010000000     3.577000000     2.844000000
H     1.961000000     3.824000000     2.378000000
C     0.974000000     2.792000000     4.016000000
O     2.111000000     2.050000000     4.361000000
C     2.177000000     0.728000000     3.741000000
H     1.445000000     0.812000000     2.924000000
C     3.496000000     0.477000000     3.037000000
C     3.793000000    -0.840000000     2.590000000
H     3.029000000    -1.602000000     2.723000000
C     4.247000000     1.498000000     2.492000000
H     3.982000000     2.519000000     2.756000000
C     5.508000000     1.335000000     1.838000000
O     6.373000000     2.340000000     1.430000000
C     5.792000000     0.024000000     1.478000000
H     6.740000000    -0.114000000     0.965000000
C     4.963000000    -1.060000000     1.837000000
O     5.169000000    -2.344000000     1.343000000
C     4.765000000    -3.436000000     2.101000000
C     4.037000000    -4.473000000     1.465000000
H     3.828000000    -4.247000000     0.423000000
C     5.022000000    -3.599000000     3.484000000
H     5.505000000    -2.749000000     3.961000000
C     4.582000000    -4.724000000     4.164000000
H     4.724000000    -4.691000000     5.241000000
C     3.892000000    -5.767000000     3.550000000
H     3.616000000    -6.657000000     4.109000000
C     3.598000000    -5.623000000     2.163000000
O     2.891000000    -6.581000000     1.505000000
C     1.774000000    -6.042000000     0.868000000
C     1.668000000    -6.082000000    -0.497000000
H     2.417000000    -6.650000000    -1.043000000
C     0.772000000    -5.252000000    -1.184000000
O     0.787000000    -5.376000000    -2.564000000
C    -0.375000000    -5.654000000    -3.232000000
C    -0.854000000    -4.633000000    -4.070000000
H    -0.210000000    -3.767000000    -4.200000000
C    -1.033000000    -6.849000000    -3.050000000
H    -0.574000000    -7.712000000    -2.574000000
C    -2.211000000    -7.015000000    -3.784000000
H    -2.744000000    -7.963000000    -3.773000000
C    -2.766000000    -5.983000000    -4.545000000
H    -3.695000000    -6.223000000    -5.057000000
C    -2.104000000    -4.735000000    -4.730000000
O    -2.695000000    -3.739000000    -5.563000000
C    -2.822000000    -2.372000000    -5.109000000
C    -2.637000000    -1.387000000    -6.078000000
H    -2.410000000    -1.732000000    -7.083000000
C    -2.805000000    -0.065000000    -5.724000000
O    -2.676000000     0.982000000    -6.707000000
C    -1.950000000     2.181000000    -6.424000000
C    -0.708000000     2.184000000    -5.876000000
H    -0.287000000     1.281000000    -5.442000000
C    -2.417000000     3.325000000    -7.035000000
H    -3.394000000     3.385000000    -7.508000000
C    -1.750000000     4.564000000    -6.856000000
H    -2.089000000     5.510000000    -7.271000000
C    -0.491000000     4.521000000    -6.249000000
H     0.063000000     5.456000000    -6.249000000
C    -0.015000000     3.380000000    -5.610000000
O     1.243000000     3.383000000    -4.956000000
C     1.462000000     3.913000000    -3.747000000
C     2.714000000     4.392000000    -3.358000000
H     3.489000000     4.481000000    -4.115000000
C     2.988000000     4.794000000    -2.054000000
O     4.187000000     5.358000000    -1.754000000
C     4.830000000     5.114000000    -0.578000000
C     5.276000000     6.203000000     0.178000000
H     5.047000000     7.188000000    -0.221000000
C     5.964000000     6.005000000     1.385000000
H     6.202000000     6.831000000     2.051000000
C     6.295000000     4.697000000     1.763000000
H     6.835000000     4.491000000     2.683000000
C     5.899000000     3.581000000     0.959000000
C     5.219000000     3.758000000    -0.223000000
H     4.946000000     2.953000000    -0.901000000
C     0.150000000    -0.684000000    -1.526000000
H    -0.372000000    -1.372000000    -2.186000000
C    -0.287000000    -0.285000000    -0.204000000
H    -1.212000000    -0.634000000     0.247000000
C     0.417000000     0.722000000     0.425000000
H     0.087000000     1.082000000     1.386000000
C     1.561000000     1.223000000    -0.159000000
H     2.120000000     2.013000000     0.336000000
C     2.110000000     0.700000000    -1.309000000
H     3.045000000     1.110000000    -1.683000000
C     1.375000000    -0.203000000    -2.046000000
C     1.782000000    -0.567000000    -3.444000000
O     2.635000000     0.124000000    -4.073000000
O     1.247000000    -1.552000000    -3.950000000
O     6.663000000    -5.913000000    -4.143000000
H     6.397000000    -5.157000000    -4.666000000
H     6.371000000    -5.705000000    -3.256000000
O    -0.046000000    -0.717000000    -9.857000000
H    -0.087000000    -0.232000000    -9.032000000
H     0.467000000    -1.498000000    -9.650000000
O     4.323000000     0.729000000    -9.876000000
H     3.488000000     0.870000000    -9.429000000
H     4.892000000     1.424000000    -9.545000000
O     6.241000000    -0.118000000    -2.417000000
H     5.814000000     0.716000000    -2.220000000
H     5.861000000    -0.390000000    -3.253000000
O     8.062000000    -1.848000000    -5.781000000
H     7.774000000    -2.103000000    -4.904000000
H     8.197000000    -2.677000000    -6.239000000
O     2.469000000     0.962000000    -6.668000000
H     2.476000000     0.840000000    -5.719000000
H     2.177000000     1.865000000    -6.791000000
O     4.662000000    -2.403000000    -8.089000000
H     4.200000000    -2.795000000    -8.830000000
H     4.690000000    -3.097000000    -7.430000000
O     8.071000000    -2.596000000    -1.852000000
H     7.730000000    -3.233000000    -1.224000000
H     7.291000000    -2.203000000    -2.241000000
O     6.042000000    -2.507000000    -3.870000000
H     5.734000000    -1.948000000    -4.584000000
H     5.251000000    -2.934000000    -3.541000000
O     1.212000000    -6.001000000    -7.101000000
H     1.828000000    -5.436000000    -6.634000000
H     1.700000000    -6.307000000    -7.865000000
O     8.620000000     1.351000000    -1.875000000
H     8.060000000     0.711000000    -2.314000000
H     9.418000000     1.373000000    -2.403000000
O     3.223000000    -3.569000000    -4.000000000
H     2.675000000    -2.790000000    -4.091000000
H     2.666000000    -4.202000000    -3.547000000
O     6.874000000     3.179000000    -3.733000000
H     6.089000000     2.669000000    -3.935000000
H     7.527000000     2.524000000    -3.487000000
O     4.876000000    -0.712000000    -5.638000000
H     4.746000000    -0.981000000    -6.547000000
H     3.990000000    -0.586000000    -5.297000000
O     4.384000000    -4.252000000    -6.163000000
H     3.917000000    -3.952000000    -5.383000000
H     4.396000000    -5.205000000    -6.083000000
O     4.531000000     1.889000000    -4.133000000
H     3.916000000     1.175000000    -3.965000000
H     4.072000000     2.461000000    -4.748000000
O    -0.426000000    -3.408000000    -7.964000000
H    -0.068000000    -4.262000000    -7.722000000
H     0.171000000    -2.776000000    -7.562000000
O     7.099000000     0.858000000    -5.794000000
H     7.464000000    -0.026000000    -5.742000000
H     6.152000000     0.724000000    -5.827000000
O     1.139000000    -1.551000000    -6.560000000
H     1.534000000    -0.708000000    -6.783000000
H     1.160000000    -1.580000000    -5.603000000
