215
-1458.50535
C    -0.566000000    -4.667000000    -0.421000000
H    -1.398000000    -4.117000000    -0.852000000
C    -0.259000000    -4.509000000     0.959000000
C     0.936000000    -5.098000000     1.460000000
H     1.188000000    -5.038000000     2.516000000
C    -1.129000000    -3.621000000     1.879000000
O    -2.563000000    -3.810000000     1.725000000
H    -0.929000000    -2.565000000     1.642000000
O    -0.799000000    -3.798000000     3.266000000
C    -0.577000000    -2.574000000     3.889000000
C     0.712000000    -2.070000000     4.027000000
H     1.518000000    -2.774000000     3.834000000
C     0.927000000    -0.751000000     4.400000000
O     2.212000000    -0.223000000     4.370000000
C    -0.074000000     0.056000000     4.874000000
C     0.209000000     1.452000000     5.408000000
H    -0.586000000     1.805000000     6.069000000
C     0.239000000     2.417000000     4.288000000
C    -0.931000000     3.016000000     3.853000000
H    -1.891000000     2.749000000     4.287000000
H     1.111000000     1.401000000     6.022000000
C    -1.395000000    -0.454000000     4.805000000
H    -2.168000000     0.230000000     5.148000000
C    -1.637000000    -1.677000000     4.211000000
C    -3.138000000    -2.075000000     4.105000000
H    -3.781000000    -1.713000000     4.910000000
H    -3.027000000    -3.144000000     4.295000000
C    -3.685000000    -1.844000000     2.686000000
C    -4.394000000    -0.732000000     2.438000000
H    -4.616000000     0.017000000     3.194000000
C    -3.262000000    -2.607000000     1.651000000
C    -3.650000000    -2.346000000     0.333000000
H    -3.228000000    -2.937000000    -0.476000000
C    -4.494000000    -1.231000000     0.112000000
O    -4.625000000    -0.922000000    -1.239000000
C    -3.744000000     0.051000000    -1.856000000
C    -3.593000000    -0.400000000    -3.312000000
C    -3.620000000     0.488000000    -4.361000000
H    -3.772000000     1.557000000    -4.233000000
C    -3.500000000    -1.793000000    -3.571000000
H    -3.372000000    -2.505000000    -2.760000000
O    -4.397000000     1.296000000    -1.760000000
H    -2.779000000     0.065000000    -1.328000000
C    -4.879000000    -0.419000000     1.180000000
C    -5.473000000     0.952000000     0.921000000
H    -6.037000000     1.194000000     1.824000000
H    -6.223000000     0.928000000     0.129000000
C    -4.403000000     1.949000000     0.571000000
C    -3.977000000     2.841000000     1.562000000
H    -4.374000000     2.725000000     2.567000000
C    -4.017000000     2.147000000    -0.788000000
C    -3.193000000     3.199000000    -1.128000000
H    -2.821000000     3.324000000    -2.142000000
C    -2.587000000     3.908000000    -0.149000000
O    -1.594000000     4.772000000    -0.487000000
C    -0.362000000     4.241000000    -0.151000000
C     0.593000000     4.262000000    -1.360000000
C     0.233000000     3.758000000    -2.652000000
H    -0.763000000     3.355000000    -2.813000000
C     1.865000000     4.649000000    -1.138000000
H     2.192000000     5.067000000    -0.189000000
O     0.222000000     4.848000000     0.944000000
H    -0.478000000     3.159000000     0.010000000
C    -3.025000000     3.736000000     1.170000000
C    -2.267000000     4.443000000     2.347000000
H    -2.966000000     4.349000000     3.181000000
H    -2.141000000     5.524000000     2.252000000
C    -0.961000000     3.877000000     2.774000000
C     0.186000000     4.261000000     2.134000000
C     1.367000000     3.666000000     2.524000000
H     2.228000000     3.660000000     1.860000000
C     1.370000000     2.751000000     3.552000000
O     2.491000000     2.131000000     3.809000000
C     2.521000000     0.738000000     3.336000000
H     1.848000000     0.615000000     2.474000000
C     3.817000000     0.359000000     2.657000000
C     4.141000000    -1.008000000     2.394000000
H     3.520000000    -1.804000000     2.797000000
C     4.581000000     1.422000000     2.109000000
H     4.376000000     2.452000000     2.392000000
C     5.740000000     1.086000000     1.436000000
O     6.522000000     2.137000000     1.007000000
C     6.187000000    -0.246000000     1.337000000
H     7.180000000    -0.389000000     0.919000000
C     5.395000000    -1.305000000     1.794000000
O     5.999000000    -2.602000000     1.791000000
C     5.268000000    -3.652000000     2.152000000
C     4.363000000    -4.293000000     1.271000000
H     4.083000000    -3.911000000     0.293000000
C     5.617000000    -4.220000000     3.384000000
H     6.316000000    -3.637000000     3.979000000
C     4.899000000    -5.311000000     3.853000000
H     5.116000000    -5.733000000     4.831000000
C     4.084000000    -5.979000000     2.956000000
H     3.685000000    -6.922000000     3.322000000
C     3.830000000    -5.499000000     1.702000000
O     2.966000000    -6.200000000     0.913000000
C     1.738000000    -5.792000000     0.580000000
C     1.458000000    -5.865000000    -0.806000000
H     2.147000000    -6.482000000    -1.375000000
C     0.280000000    -5.313000000    -1.319000000
O     0.103000000    -5.438000000    -2.699000000
C    -1.145000000    -5.664000000    -3.247000000
C    -1.732000000    -4.600000000    -3.866000000
H    -1.176000000    -3.667000000    -3.923000000
C    -1.944000000    -6.840000000    -3.062000000
H    -1.467000000    -7.723000000    -2.644000000
C    -3.232000000    -6.985000000    -3.675000000
H    -3.774000000    -7.925000000    -3.609000000
C    -3.703000000    -5.929000000    -4.490000000
H    -4.670000000    -6.078000000    -4.963000000
C    -3.017000000    -4.667000000    -4.429000000
O    -3.552000000    -3.601000000    -5.146000000
C    -3.316000000    -2.232000000    -4.889000000
C    -3.233000000    -1.309000000    -5.936000000
H    -2.928000000    -1.557000000    -6.949000000
C    -3.360000000     0.034000000    -5.682000000
O    -3.006000000     0.923000000    -6.710000000
C    -2.248000000     2.067000000    -6.426000000
C    -1.087000000     2.021000000    -5.716000000
H    -0.695000000     1.073000000    -5.356000000
C    -2.590000000     3.287000000    -7.043000000
H    -3.373000000     3.292000000    -7.797000000
C    -1.908000000     4.430000000    -6.720000000
H    -2.261000000     5.377000000    -7.121000000
C    -0.804000000     4.402000000    -5.870000000
H    -0.265000000     5.296000000    -5.567000000
C    -0.331000000     3.148000000    -5.452000000
O     0.909000000     2.985000000    -4.795000000
C     1.172000000     3.749000000    -3.720000000
C     2.464000000     4.102000000    -3.397000000
H     3.236000000     4.030000000    -4.158000000
C     2.843000000     4.565000000    -2.165000000
O     4.093000000     4.952000000    -1.973000000
C     4.856000000     4.757000000    -0.846000000
C     5.140000000     5.864000000    -0.041000000
H     4.913000000     6.866000000    -0.396000000
C     5.968000000     5.708000000     1.098000000
H     5.911000000     6.549000000     1.784000000
C     6.341000000     4.418000000     1.488000000
H     6.888000000     4.193000000     2.400000000
C     6.039000000     3.349000000     0.640000000
C     5.386000000     3.506000000    -0.576000000
H     5.200000000     2.726000000    -1.309000000
C     0.257000000    -1.226000000    -1.486000000
H    -0.069000000    -2.179000000    -1.897000000
C    -0.479000000    -0.657000000    -0.372000000
H    -1.350000000    -1.144000000     0.057000000
C    -0.063000000     0.531000000     0.131000000
H    -0.519000000     0.893000000     1.019000000
C     1.120000000     1.174000000    -0.340000000
H     1.437000000     2.095000000     0.144000000
C     1.843000000     0.634000000    -1.441000000
H     2.737000000     1.114000000    -1.831000000
C     1.368000000    -0.556000000    -1.999000000
C     2.190000000    -1.153000000    -3.116000000
O     3.132000000    -0.523000000    -3.570000000
O     1.857000000    -2.206000000    -3.607000000
O     7.542000000    -4.385000000    -2.888000000
H     7.199000000    -4.168000000    -3.755000000
H     7.401000000    -5.328000000    -2.804000000
O     5.441000000     2.173000000    -8.023000000
H     5.114000000     1.298000000    -7.812000000
H     5.023000000     2.746000000    -7.381000000
O     5.621000000     0.716000000    -2.446000000
H     4.748000000     0.393000000    -2.669000000
H     6.062000000    -0.038000000    -2.054000000
O     2.123000000     2.992000000    -8.100000000
H     2.504000000     3.646000000    -8.686000000
H     2.595000000     3.106000000    -7.275000000
O     1.668000000     0.516000000    -6.674000000
H     1.538000000     1.393000000    -7.034000000
H     2.535000000     0.549000000    -6.270000000
O     3.904000000    -4.728000000    -8.018000000
H     3.734000000    -5.473000000    -8.595000000
H     3.386000000    -4.909000000    -7.233000000
O     6.075000000    -2.325000000    -1.833000000
H     6.840000000    -2.831000000    -2.108000000
H     5.349000000    -2.697000000    -2.334000000
O     5.430000000    -4.439000000    -4.721000000
H     5.181000000    -3.715000000    -5.295000000
H     4.610000000    -4.707000000    -4.305000000
O     4.541000000    -0.813000000    -7.944000000
H     4.042000000    -1.284000000    -8.612000000
H     4.434000000    -1.338000000    -7.151000000
O     2.912000000    -4.598000000    -3.800000000
H     2.621000000    -3.695000000    -3.673000000
H     2.233000000    -5.130000000    -3.386000000
O     6.364000000     2.601000000    -4.243000000
H     6.531000000     2.496000000    -5.180000000
H     6.323000000     1.706000000    -3.906000000
O     7.300000000    -1.154000000    -6.828000000
H     6.530000000    -0.649000000    -7.090000000
H     7.056000000    -2.065000000    -6.994000000
O     3.804000000    -2.206000000    -5.673000000
H     3.612000000    -1.555000000    -4.998000000
H     2.950000000    -2.577000000    -5.898000000
O     0.696000000    -0.726000000    -8.931000000
H     0.393000000     0.101000000    -9.304000000
H     0.824000000    -0.537000000    -8.002000000
O     2.193000000    -5.585000000    -6.236000000
H     2.384000000    -5.188000000    -5.386000000
H     2.688000000    -6.405000000    -6.234000000
O     4.205000000     1.270000000    -5.386000000
H     3.966000000     0.542000000    -4.813000000
H     4.567000000     1.931000000    -4.796000000
O    -0.232000000    -4.106000000    -6.694000000
H     0.621000000    -4.540000000    -6.697000000
H    -0.066000000    -3.254000000    -6.291000000
O     8.129000000    -0.815000000    -4.135000000
H     8.895000000    -1.229000000    -4.534000000
H     7.419000000    -0.979000000    -4.755000000
O     0.417000000    -1.769000000    -5.619000000
H     0.742000000    -0.942000000    -5.975000000
H     0.903000000    -1.886000000    -4.803000000
