215
-1440.54266
C    -0.623000000    -4.592000000    -0.106000000
H    -1.657000000    -4.489000000    -0.426000000
C    -0.281000000    -4.112000000     1.157000000
C     1.074000000    -4.144000000     1.550000000
H     1.362000000    -3.613000000     2.453000000
C    -1.288000000    -3.308000000     1.984000000
O    -2.715000000    -3.606000000     1.755000000
H    -1.183000000    -2.284000000     1.594000000
O    -0.896000000    -3.474000000     3.382000000
C    -0.844000000    -2.191000000     3.999000000
C     0.394000000    -1.661000000     4.305000000
H     1.290000000    -2.210000000     4.027000000
C     0.571000000    -0.369000000     4.727000000
O     1.887000000     0.122000000     4.858000000
C    -0.497000000     0.473000000     4.776000000
C    -0.305000000     2.013000000     5.122000000
H    -1.247000000     2.258000000     5.617000000
C    -0.138000000     2.914000000     3.963000000
C    -1.244000000     3.480000000     3.273000000
H    -2.206000000     3.324000000     3.755000000
H     0.394000000     2.240000000     5.930000000
C    -1.773000000     0.021000000     4.458000000
H    -2.596000000     0.723000000     4.561000000
C    -2.000000000    -1.330000000     4.185000000
C    -3.437000000    -1.742000000     3.858000000
H    -4.099000000    -1.226000000     4.557000000
H    -3.573000000    -2.811000000     4.032000000
C    -3.831000000    -1.534000000     2.368000000
C    -4.617000000    -0.464000000     1.949000000
H    -4.984000000     0.246000000     2.685000000
C    -3.557000000    -2.567000000     1.433000000
C    -4.029000000    -2.418000000     0.150000000
H    -3.634000000    -3.156000000    -0.543000000
C    -4.718000000    -1.270000000    -0.280000000
O    -4.985000000    -1.104000000    -1.618000000
C    -3.963000000    -0.325000000    -2.211000000
C    -3.503000000    -0.882000000    -3.589000000
C    -2.778000000    -0.059000000    -4.467000000
H    -2.638000000     0.991000000    -4.219000000
C    -3.644000000    -2.259000000    -3.802000000
H    -4.125000000    -2.961000000    -3.126000000
O    -4.386000000     1.021000000    -2.338000000
H    -3.059000000    -0.390000000    -1.588000000
C    -4.994000000    -0.223000000     0.667000000
C    -5.657000000     1.057000000     0.272000000
H    -6.239000000     1.455000000     1.106000000
H    -6.334000000     0.902000000    -0.570000000
C    -4.630000000     2.046000000    -0.120000000
C    -4.045000000     2.891000000     0.776000000
H    -4.447000000     2.976000000     1.782000000
C    -4.092000000     1.943000000    -1.371000000
C    -3.060000000     2.725000000    -1.757000000
H    -2.675000000     2.734000000    -2.774000000
C    -2.432000000     3.530000000    -0.808000000
O    -1.380000000     4.312000000    -1.202000000
C    -0.157000000     3.951000000    -0.737000000
C     0.882000000     3.813000000    -1.819000000
C     0.515000000     3.891000000    -3.157000000
H    -0.521000000     4.106000000    -3.405000000
C     2.247000000     3.539000000    -1.540000000
H     2.649000000     3.491000000    -0.532000000
O     0.315000000     4.864000000     0.296000000
H    -0.107000000     2.937000000    -0.313000000
C    -2.913000000     3.552000000     0.533000000
C    -2.334000000     4.612000000     1.488000000
H    -3.117000000     4.899000000     2.193000000
H    -2.220000000     5.530000000     0.907000000
C    -1.093000000     4.138000000     2.110000000
C     0.185000000     4.358000000     1.566000000
C     1.276000000     3.743000000     2.227000000
H     2.288000000     3.880000000     1.854000000
C     1.103000000     2.918000000     3.345000000
O     2.221000000     2.332000000     3.839000000
C     2.410000000     0.938000000     3.751000000
H     1.782000000     0.743000000     2.870000000
C     3.870000000     0.663000000     3.410000000
C     4.328000000    -0.577000000     3.837000000
H     3.611000000    -1.252000000     4.298000000
C     4.706000000     1.433000000     2.677000000
H     4.312000000     2.371000000     2.295000000
C     6.064000000     1.073000000     2.490000000
O     6.851000000     1.987000000     1.858000000
C     6.561000000    -0.103000000     3.016000000
H     7.592000000    -0.431000000     2.908000000
C     5.681000000    -0.986000000     3.625000000
O     6.195000000    -2.203000000     3.927000000
C     5.354000000    -3.321000000     3.771000000
C     4.718000000    -3.600000000     2.541000000
H     4.951000000    -2.944000000     1.706000000
C     5.061000000    -4.139000000     4.842000000
H     5.541000000    -3.963000000     5.801000000
C     4.112000000    -5.181000000     4.738000000
H     3.826000000    -5.676000000     5.662000000
C     3.564000000    -5.406000000     3.475000000
H     2.821000000    -6.186000000     3.328000000
C     3.871000000    -4.637000000     2.377000000
O     3.336000000    -4.890000000     1.138000000
C     2.026000000    -4.775000000     0.758000000
C     1.617000000    -5.314000000    -0.461000000
H     2.260000000    -5.958000000    -1.055000000
C     0.320000000    -5.262000000    -0.903000000
O    -0.065000000    -5.881000000    -2.076000000
C    -1.365000000    -5.835000000    -2.660000000
C    -1.659000000    -5.133000000    -3.765000000
H    -0.836000000    -4.602000000    -4.236000000
C    -2.355000000    -6.644000000    -2.133000000
H    -2.102000000    -7.349000000    -1.345000000
C    -3.633000000    -6.615000000    -2.627000000
H    -4.393000000    -7.312000000    -2.282000000
C    -4.001000000    -5.736000000    -3.633000000
H    -5.015000000    -5.552000000    -3.980000000
C    -2.972000000    -5.033000000    -4.252000000
O    -3.151000000    -4.128000000    -5.231000000
C    -3.091000000    -2.739000000    -5.016000000
C    -2.411000000    -1.927000000    -5.955000000
H    -2.160000000    -2.339000000    -6.929000000
C    -2.299000000    -0.557000000    -5.708000000
O    -1.671000000     0.345000000    -6.628000000
C    -1.528000000     1.692000000    -6.443000000
C    -0.309000000     2.199000000    -6.062000000
H     0.427000000     1.532000000    -5.619000000
C    -2.467000000     2.597000000    -7.029000000
H    -3.473000000     2.261000000    -7.268000000
C    -2.118000000     3.957000000    -7.198000000
H    -2.860000000     4.550000000    -7.728000000
C    -0.928000000     4.453000000    -6.723000000
H    -0.805000000     5.519000000    -6.892000000
C    -0.052000000     3.588000000    -6.076000000
O     1.104000000     4.049000000    -5.468000000
C     1.472000000     3.803000000    -4.179000000
C     2.840000000     3.490000000    -3.887000000
H     3.546000000     3.480000000    -4.713000000
C     3.209000000     3.325000000    -2.548000000
O     4.514000000     2.995000000    -2.253000000
C     5.213000000     3.407000000    -1.073000000
C     5.562000000     4.789000000    -0.839000000
H     5.264000000     5.583000000    -1.519000000
C     6.172000000     5.233000000     0.325000000
H     6.357000000     6.281000000     0.544000000
C     6.732000000     4.225000000     1.151000000
H     7.384000000     4.598000000     1.937000000
C     6.416000000     2.879000000     0.948000000
C     5.614000000     2.496000000    -0.122000000
H     5.417000000     1.471000000    -0.425000000
C     0.574000000    -1.803000000    -1.929000000
H     0.250000000    -2.570000000    -2.628000000
C    -0.313000000    -1.195000000    -1.062000000
H    -1.384000000    -1.367000000    -1.128000000
C     0.185000000    -0.153000000    -0.240000000
H    -0.385000000     0.420000000     0.501000000
C     1.599000000     0.111000000    -0.178000000
H     1.995000000     0.762000000     0.596000000
C     2.432000000    -0.578000000    -1.034000000
H     3.481000000    -0.308000000    -1.125000000
C     1.951000000    -1.482000000    -1.942000000
C     2.907000000    -2.150000000    -2.891000000
O     4.073000000    -1.716000000    -3.021000000
O     2.594000000    -2.978000000    -3.709000000
O     6.095000000     1.700000000    -7.731000000
H     5.690000000     1.005000000    -7.212000000
H     5.904000000     2.503000000    -7.247000000
O     6.518000000    -0.842000000    -3.450000000
H     6.586000000    -1.180000000    -4.342000000
H     5.606000000    -0.993000000    -3.205000000
O     8.511000000     0.634000000    -1.746000000
H     8.681000000    -0.277000000    -1.505000000
H     7.753000000     0.591000000    -2.328000000
O     6.786000000    -4.616000000    -1.626000000
H     6.232000000    -4.270000000    -2.326000000
H     6.849000000    -5.553000000    -1.810000000
O     2.088000000     0.055000000    -6.069000000
H     2.076000000     0.758000000    -6.719000000
H     2.847000000     0.250000000    -5.519000000
O     5.073000000    -4.094000000    -3.882000000
H     4.652000000    -4.888000000    -3.552000000
H     4.410000000    -3.411000000    -3.780000000
O     8.499000000     0.691000000    -5.948000000
H     8.623000000     0.618000000    -6.894000000
H     7.742000000     0.135000000    -5.762000000
O     7.663000000    -3.677000000    -5.052000000
H     6.858000000    -3.888000000    -4.579000000
H     7.443000000    -2.898000000    -5.564000000
O     6.680000000    -1.436000000    -6.160000000
H     6.988000000    -1.594000000    -7.053000000
H     5.781000000    -1.764000000    -6.155000000
O     4.232000000    -7.349000000    -4.083000000
H     3.987000000    -8.272000000    -4.144000000
H     3.398000000    -6.879000000    -4.097000000
O     8.719000000    -2.215000000    -1.105000000
H     9.181000000    -2.890000000    -1.603000000
H     7.795000000    -2.356000000    -1.310000000
O     2.171000000    -5.678000000    -4.491000000
H     2.096000000    -4.731000000    -4.373000000
H     2.257000000    -5.795000000    -5.437000000
O     4.238000000    -2.239000000    -6.210000000
H     3.818000000    -2.052000000    -5.370000000
H     3.682000000    -1.807000000    -6.858000000
O     0.384000000    -1.006000000    -7.791000000
H    -0.229000000    -0.354000000    -7.451000000
H     1.169000000    -0.900000000    -7.254000000
O     3.601000000    -5.462000000    -7.046000000
H     4.259000000    -4.918000000    -6.613000000
H     4.004000000    -6.329000000    -7.099000000
O     3.904000000     0.482000000    -4.227000000
H     3.872000000    -0.413000000    -3.888000000
H     4.059000000     1.025000000    -3.455000000
O     1.044000000    -8.109000000    -3.925000000
H     1.604000000    -8.446000000    -3.226000000
H     1.084000000    -7.158000000    -3.827000000
O     1.306000000    -4.462000000    -7.942000000
H     2.171000000    -4.734000000    -7.635000000
H     0.974000000    -3.893000000    -7.248000000
O     0.701000000    -3.145000000    -5.467000000
H     0.247000000    -2.315000000    -5.321000000
H     1.400000000    -3.154000000    -4.813000000
