215
-1462.56825
C    -2.647000000    -3.783000000     1.497000000
H    -3.208000000    -3.187000000     0.782000000
C    -2.050000000    -3.255000000     2.663000000
C    -1.048000000    -3.932000000     3.305000000
H    -0.485000000    -3.548000000     4.152000000
C    -2.258000000    -1.786000000     2.886000000
O    -3.670000000    -1.466000000     2.817000000
H    -1.701000000    -1.156000000     2.177000000
O    -1.873000000    -1.376000000     4.197000000
C    -1.132000000    -0.256000000     4.276000000
C     0.289000000    -0.431000000     4.438000000
H     0.757000000    -1.411000000     4.485000000
C     1.098000000     0.740000000     4.507000000
O     2.512000000     0.619000000     4.401000000
C     0.490000000     1.988000000     4.332000000
C     1.389000000     3.210000000     4.227000000
H     0.913000000     4.119000000     4.601000000
C     1.734000000     3.541000000     2.797000000
C     0.920000000     4.474000000     2.110000000
H     0.056000000     4.913000000     2.603000000
H     2.310000000     3.002000000     4.776000000
C    -0.874000000     2.140000000     4.305000000
H    -1.325000000     3.127000000     4.243000000
C    -1.737000000     0.999000000     4.227000000
C    -3.207000000     1.130000000     4.304000000
H    -3.448000000     2.014000000     4.897000000
H    -3.549000000     0.351000000     4.988000000
C    -3.853000000     0.972000000     2.983000000
C    -4.123000000     2.130000000     2.258000000
H    -3.962000000     3.073000000     2.774000000
C    -4.032000000    -0.270000000     2.274000000
C    -4.436000000    -0.344000000     0.977000000
H    -4.506000000    -1.297000000     0.458000000
C    -4.743000000     0.838000000     0.305000000
O    -4.900000000     0.638000000    -1.076000000
C    -3.795000000     0.772000000    -1.987000000
C    -3.833000000    -0.141000000    -3.242000000
C    -3.285000000     0.289000000    -4.504000000
H    -2.848000000     1.264000000    -4.703000000
C    -4.346000000    -1.443000000    -3.147000000
H    -4.778000000    -1.788000000    -2.211000000
O    -3.832000000     2.187000000    -2.445000000
H    -2.862000000     0.462000000    -1.493000000
C    -4.564000000     2.061000000     0.899000000
C    -4.601000000     3.366000000     0.148000000
H    -4.871000000     4.284000000     0.675000000
H    -5.204000000     3.367000000    -0.762000000
C    -3.267000000     3.677000000    -0.613000000
C    -2.276000000     4.473000000    -0.031000000
H    -2.456000000     4.810000000     0.987000000
C    -3.024000000     3.123000000    -1.867000000
C    -1.877000000     3.341000000    -2.514000000
H    -1.640000000     2.801000000    -3.428000000
C    -0.834000000     4.175000000    -2.026000000
O     0.417000000     4.248000000    -2.607000000
C     1.481000000     3.439000000    -2.043000000
C     2.184000000     2.670000000    -3.147000000
C     1.620000000     2.347000000    -4.384000000
H     0.660000000     2.761000000    -4.680000000
C     3.400000000     2.112000000    -2.790000000
H     3.866000000     2.372000000    -1.843000000
O     2.362000000     4.153000000    -1.215000000
H     1.031000000     2.625000000    -1.455000000
C    -1.062000000     4.649000000    -0.679000000
C     0.035000000     5.540000000    -0.039000000
H    -0.292000000     6.320000000     0.652000000
H     0.517000000     6.129000000    -0.822000000
C     1.021000000     4.685000000     0.733000000
C     2.151000000     4.077000000     0.135000000
C     3.029000000     3.269000000     0.815000000
H     3.882000000     2.832000000     0.302000000
C     2.791000000     2.949000000     2.138000000
O     3.592000000     2.083000000     2.856000000
C     3.054000000     0.731000000     3.117000000
H     2.240000000     0.666000000     2.381000000
C     4.149000000    -0.327000000     2.958000000
C     3.944000000    -1.573000000     3.530000000
H     3.079000000    -1.832000000     4.136000000
C     5.144000000    -0.080000000     2.094000000
H     5.378000000     0.932000000     1.773000000
C     5.994000000    -1.098000000     1.742000000
O     7.087000000    -0.842000000     0.973000000
C     5.871000000    -2.402000000     2.304000000
H     6.645000000    -3.137000000     2.101000000
C     4.784000000    -2.636000000     3.179000000
O     4.724000000    -3.860000000     3.848000000
C     3.599000000    -4.433000000     4.444000000
C     2.495000000    -4.885000000     3.740000000
H     2.532000000    -4.745000000     2.663000000
C     3.733000000    -4.795000000     5.791000000
H     4.695000000    -4.713000000     6.292000000
C     2.713000000    -5.403000000     6.413000000
H     2.786000000    -5.677000000     7.463000000
C     1.533000000    -5.746000000     5.725000000
H     0.711000000    -6.130000000     6.324000000
C     1.420000000    -5.535000000     4.355000000
O     0.297000000    -5.974000000     3.604000000
C    -0.645000000    -5.243000000     2.879000000
C    -1.137000000    -5.642000000     1.620000000
H    -0.858000000    -6.612000000     1.217000000
C    -2.203000000    -5.017000000     0.993000000
O    -2.644000000    -5.601000000    -0.191000000
C    -3.791000000    -5.227000000    -0.897000000
C    -3.749000000    -4.580000000    -2.143000000
H    -2.828000000    -4.233000000    -2.604000000
C    -4.987000000    -5.592000000    -0.279000000
H    -4.968000000    -5.982000000     0.736000000
C    -6.163000000    -5.319000000    -0.969000000
H    -7.135000000    -5.534000000    -0.533000000
C    -6.152000000    -4.660000000    -2.168000000
H    -7.090000000    -4.421000000    -2.662000000
C    -4.978000000    -4.262000000    -2.748000000
O    -4.893000000    -3.552000000    -4.028000000
C    -4.308000000    -2.320000000    -4.219000000
C    -3.834000000    -1.920000000    -5.495000000
H    -3.785000000    -2.624000000    -6.321000000
C    -3.382000000    -0.613000000    -5.627000000
O    -2.806000000    -0.254000000    -6.837000000
C    -1.771000000     0.650000000    -6.934000000
C    -0.460000000     0.383000000    -6.618000000
H    -0.193000000    -0.605000000    -6.253000000
C    -2.116000000     1.959000000    -7.318000000
H    -3.112000000     2.308000000    -7.577000000
C    -1.102000000     2.861000000    -7.608000000
H    -1.300000000     3.861000000    -7.986000000
C     0.262000000     2.583000000    -7.324000000
H     0.952000000     3.417000000    -7.425000000
C     0.580000000     1.332000000    -6.800000000
O     1.848000000     1.009000000    -6.357000000
C     2.318000000     1.472000000    -5.237000000
C     3.468000000     0.792000000    -4.782000000
H     3.953000000    -0.036000000    -5.293000000
C     4.035000000     1.132000000    -3.607000000
O     5.095000000     0.419000000    -3.094000000
C     5.932000000     0.756000000    -2.062000000
C     6.572000000     1.981000000    -1.934000000
H     6.392000000     2.582000000    -2.822000000
C     7.442000000     2.317000000    -0.902000000
H     7.795000000     3.345000000    -0.888000000
C     7.610000000     1.325000000     0.106000000
H     8.208000000     1.545000000     0.986000000
C     6.994000000     0.046000000    -0.057000000
C     6.199000000    -0.280000000    -1.150000000
H     5.873000000    -1.309000000    -1.278000000
C    -0.182000000    -2.172000000    -1.272000000
H    -0.903000000    -2.971000000    -1.422000000
C    -0.656000000    -1.190000000    -0.406000000
H    -1.662000000    -1.267000000     0.000000000
C     0.192000000    -0.188000000    -0.043000000
H    -0.145000000     0.582000000     0.551000000
C     1.482000000    -0.140000000    -0.619000000
H     2.169000000     0.660000000    -0.352000000
C     1.974000000    -1.108000000    -1.531000000
H     2.972000000    -1.075000000    -1.962000000
C     1.081000000    -2.136000000    -1.809000000
C     1.604000000    -3.317000000    -2.614000000
O     2.782000000    -3.312000000    -2.994000000
O     0.883000000    -4.233000000    -2.996000000
O     6.510000000    -3.925000000    -1.083000000
H     5.784000000    -4.514000000    -0.878000000
H     7.196000000    -4.164000000    -0.459000000
O     3.598000000    -8.107000000    -1.614000000
H     4.059000000    -7.448000000    -2.133000000
H     2.998000000    -8.523000000    -2.233000000
O     2.590000000    -7.910000000     1.134000000
H     3.142000000    -7.947000000     0.353000000
H     2.101000000    -7.092000000     1.044000000
O    -1.115000000    -2.176000000    -8.226000000
H    -0.531000000    -2.611000000    -7.605000000
H    -1.583000000    -1.527000000    -7.701000000
O     5.608000000    -2.879000000    -3.351000000
H     4.677000000    -3.013000000    -3.172000000
H     6.056000000    -3.294000000    -2.614000000
O     1.612000000    -5.357000000     0.120000000
H     1.738000000    -4.519000000     0.564000000
H     1.012000000    -5.160000000    -0.599000000
O     1.246000000    -3.073000000    -6.606000000
H     1.814000000    -3.705000000    -6.166000000
H     1.662000000    -2.929000000    -7.456000000
O    -3.338000000    -5.478000000    -5.260000000
H    -3.803000000    -4.761000000    -4.830000000
H    -2.427000000    -5.185000000    -5.297000000
O     1.398000000    -2.873000000     1.125000000
H     0.480000000    -2.724000000     0.900000000
H     1.821000000    -2.026000000     0.981000000
O    -1.004000000    -8.398000000    -1.948000000
H    -0.799000000    -9.231000000    -1.524000000
H    -1.893000000    -8.514000000    -2.285000000
O     0.821000000    -6.800000000    -3.372000000
H     0.136000000    -7.132000000    -2.792000000
H     1.063000000    -5.953000000    -2.997000000
O     4.606000000    -6.184000000    -3.158000000
H     4.362000000    -5.620000000    -2.424000000
H     3.897000000    -6.074000000    -3.791000000
O     2.023000000    -5.616000000    -8.260000000
H     2.710000000    -6.278000000    -8.180000000
H     1.522000000    -5.691000000    -7.448000000
O     0.481000000    -6.395000000    -6.350000000
H     0.867000000    -6.469000000    -5.478000000
H    -0.397000000    -6.765000000    -6.256000000
O     1.659000000    -9.081000000    -4.394000000
H     1.251000000    -8.313000000    -3.994000000
H     1.988000000    -8.767000000    -5.236000000
O     3.236000000    -3.946000000    -5.357000000
H     3.094000000    -3.595000000    -4.478000000
H     3.991000000    -3.460000000    -5.690000000
O     4.142000000    -5.013000000    -0.871000000
H     4.075000000    -4.201000000    -1.374000000
H     3.260000000    -5.154000000    -0.525000000
O     6.079000000    -3.041000000    -6.144000000
H     5.898000000    -2.654000000    -5.288000000
H     6.971000000    -2.762000000    -6.349000000
O    -1.007000000    -4.368000000    -5.004000000
H    -0.516000000    -4.109000000    -5.783000000
H    -0.391000000    -4.249000000    -4.281000000
