215
-1460.10236
C    -2.152000000    -4.676000000    -0.863000000
H    -2.953000000    -4.128000000    -1.352000000
C    -1.859000000    -4.320000000     0.453000000
C    -0.740000000    -4.950000000     1.045000000
H    -0.412000000    -4.704000000     2.051000000
C    -2.481000000    -3.097000000     1.118000000
O    -3.852000000    -2.989000000     0.688000000
H    -1.949000000    -2.172000000     0.850000000
O    -2.386000000    -3.243000000     2.543000000
C    -2.156000000    -2.092000000     3.250000000
C    -0.900000000    -1.906000000     3.728000000
H    -0.104000000    -2.609000000     3.493000000
C    -0.427000000    -0.790000000     4.416000000
O     0.883000000    -0.647000000     4.623000000
C    -1.368000000     0.241000000     4.629000000
C    -1.095000000     1.611000000     5.363000000
H    -1.995000000     2.073000000     5.774000000
C    -0.454000000     2.593000000     4.316000000
C    -1.246000000     3.501000000     3.561000000
H    -2.286000000     3.707000000     3.799000000
H    -0.353000000     1.504000000     6.157000000
C    -2.621000000     0.092000000     4.046000000
H    -3.277000000     0.949000000     4.168000000
C    -3.047000000    -1.065000000     3.378000000
C    -4.491000000    -1.171000000     2.869000000
H    -5.010000000    -0.366000000     3.393000000
H    -4.952000000    -2.142000000     3.060000000
C    -4.567000000    -0.710000000     1.419000000
C    -4.887000000     0.596000000     1.093000000
H    -4.990000000     1.368000000     1.851000000
C    -4.376000000    -1.729000000     0.437000000
C    -4.582000000    -1.392000000    -0.897000000
H    -4.401000000    -2.053000000    -1.741000000
C    -4.780000000    -0.065000000    -1.229000000
O    -4.659000000     0.239000000    -2.543000000
C    -3.341000000     0.748000000    -2.814000000
C    -2.643000000    -0.040000000    -3.970000000
C    -1.473000000     0.560000000    -4.509000000
H    -1.095000000     1.465000000    -4.040000000
C    -3.037000000    -1.295000000    -4.404000000
H    -3.884000000    -1.711000000    -3.866000000
O    -3.284000000     2.167000000    -2.918000000
H    -2.764000000     0.462000000    -1.922000000
C    -4.948000000     0.924000000    -0.243000000
C    -5.046000000     2.390000000    -0.668000000
H    -5.731000000     2.960000000    -0.036000000
H    -5.459000000     2.450000000    -1.677000000
C    -3.640000000     3.053000000    -0.724000000
C    -3.155000000     3.705000000     0.367000000
H    -3.683000000     3.845000000     1.306000000
C    -2.838000000     2.936000000    -1.862000000
C    -1.561000000     3.490000000    -1.880000000
H    -0.979000000     3.494000000    -2.798000000
C    -1.125000000     4.238000000    -0.765000000
O     0.155000000     4.706000000    -0.758000000
C     1.156000000     4.003000000     0.007000000
C     2.476000000     3.999000000    -0.787000000
C     2.487000000     3.605000000    -2.110000000
H     1.563000000     3.202000000    -2.516000000
C     3.692000000     4.341000000    -0.131000000
H     3.816000000     4.569000000     0.924000000
O     1.297000000     4.695000000     1.226000000
H     0.807000000     2.974000000     0.176000000
C    -1.906000000     4.367000000     0.388000000
C    -1.477000000     5.133000000     1.658000000
H    -2.345000000     5.501000000     2.209000000
H    -0.878000000     6.019000000     1.436000000
C    -0.642000000     4.206000000     2.531000000
C     0.697000000     4.119000000     2.305000000
C     1.457000000     3.281000000     3.073000000
H     2.528000000     3.198000000     2.906000000
C     0.949000000     2.553000000     4.130000000
O     1.769000000     1.629000000     4.707000000
C     1.718000000     0.391000000     3.973000000
H     1.258000000     0.643000000     3.006000000
C     3.015000000    -0.265000000     3.522000000
C     3.008000000    -1.665000000     3.316000000
H     2.126000000    -2.283000000     3.466000000
C     4.229000000     0.407000000     3.377000000
H     4.264000000     1.444000000     3.701000000
C     5.356000000    -0.182000000     2.808000000
O     6.643000000     0.493000000     2.600000000
C     5.279000000    -1.496000000     2.478000000
H     6.116000000    -1.957000000     1.960000000
C     4.130000000    -2.240000000     2.743000000
O     4.086000000    -3.481000000     2.200000000
C     3.360000000    -4.580000000     2.642000000
C     2.628000000    -5.176000000     1.628000000
H     2.579000000    -4.698000000     0.653000000
C     3.250000000    -5.082000000     3.942000000
H     3.880000000    -4.636000000     4.707000000
C     2.590000000    -6.278000000     4.144000000
H     2.539000000    -6.723000000     5.134000000
C     1.732000000    -6.782000000     3.165000000
H     1.124000000    -7.667000000     3.338000000
C     1.779000000    -6.251000000     1.916000000
O     0.924000000    -6.769000000     1.001000000
C    -0.089000000    -5.999000000     0.398000000
C    -0.497000000    -6.401000000    -0.890000000
H     0.059000000    -7.225000000    -1.330000000
C    -1.544000000    -5.780000000    -1.492000000
O    -2.027000000    -6.302000000    -2.686000000
C    -2.962000000    -5.723000000    -3.479000000
C    -2.479000000    -4.683000000    -4.290000000
H    -1.493000000    -4.245000000    -4.154000000
C    -4.234000000    -6.208000000    -3.671000000
H    -4.508000000    -7.076000000    -3.077000000
C    -5.009000000    -5.727000000    -4.707000000
H    -5.952000000    -6.188000000    -4.989000000
C    -4.560000000    -4.635000000    -5.457000000
H    -5.107000000    -4.319000000    -6.342000000
C    -3.268000000    -4.098000000    -5.272000000
O    -2.800000000    -3.091000000    -6.043000000
C    -2.438000000    -1.887000000    -5.489000000
C    -1.330000000    -1.267000000    -6.028000000
H    -0.774000000    -1.742000000    -6.832000000
C    -0.796000000    -0.061000000    -5.525000000
O     0.380000000     0.368000000    -6.054000000
C     0.844000000     1.634000000    -5.916000000
C     2.027000000     1.914000000    -5.213000000
H     2.708000000     1.118000000    -4.923000000
C     0.031000000     2.693000000    -6.411000000
H    -0.885000000     2.419000000    -6.928000000
C     0.435000000     4.047000000    -6.271000000
H    -0.246000000     4.815000000    -6.630000000
C     1.553000000     4.317000000    -5.486000000
H     1.951000000     5.318000000    -5.340000000
C     2.320000000     3.238000000    -4.969000000
O     3.487000000     3.459000000    -4.245000000
C     3.610000000     3.682000000    -2.907000000
C     4.854000000     4.027000000    -2.268000000
H     5.844000000     4.021000000    -2.716000000
C     4.877000000     4.384000000    -0.902000000
O     6.136000000     4.451000000    -0.221000000
C     6.360000000     3.854000000     1.028000000
C     6.738000000     4.692000000     2.120000000
H     6.629000000     5.757000000     1.933000000
C     7.002000000     4.052000000     3.313000000
H     7.224000000     4.709000000     4.151000000
C     7.132000000     2.689000000     3.443000000
H     7.445000000     2.273000000     4.397000000
C     6.647000000     1.846000000     2.458000000
C     6.192000000     2.463000000     1.231000000
H     5.924000000     1.895000000     0.344000000
C     0.684000000    -0.706000000    -1.908000000
H     0.155000000    -1.420000000    -2.535000000
C    -0.005000000    -0.223000000    -0.766000000
H    -1.065000000    -0.355000000    -0.564000000
C     0.812000000     0.412000000     0.171000000
H     0.390000000     0.843000000     1.144000000
C     2.141000000     0.587000000    -0.038000000
H     2.724000000     0.921000000     0.816000000
C     2.778000000     0.262000000    -1.238000000
H     3.853000000     0.408000000    -1.314000000
C     2.050000000    -0.515000000    -2.160000000
C     2.709000000    -1.033000000    -3.446000000
O     3.887000000    -0.774000000    -3.614000000
O     2.116000000    -1.940000000    -3.993000000
O     0.736000000    -3.029000000    -8.671000000
H     0.387000000    -3.823000000    -8.266000000
H     0.263000000    -2.956000000    -9.500000000
O     7.574000000    -3.308000000    -0.318000000
H     8.368000000    -2.778000000    -0.387000000
H     6.888000000    -2.763000000    -0.703000000
O     4.304000000    -4.811000000    -5.963000000
H     3.928000000    -4.339000000    -6.706000000
H     4.509000000    -4.129000000    -5.324000000
O     5.310000000     1.942000000    -5.946000000
H     4.566000000     2.367000000    -5.520000000
H     5.866000000     1.651000000    -5.223000000
O     8.209000000     2.533000000    -3.130000000
H     7.610000000     1.911000000    -3.544000000
H     7.993000000     3.375000000    -3.531000000
O     1.921000000    -0.455000000    -8.466000000
H     2.562000000    -0.443000000    -7.756000000
H     1.224000000    -1.029000000    -8.150000000
O     3.618000000    -6.564000000    -3.170000000
H     4.549000000    -6.760000000    -3.281000000
H     3.599000000    -5.839000000    -2.546000000
O     5.587000000    -2.773000000    -4.515000000
H     6.450000000    -2.396000000    -4.686000000
H     5.011000000    -2.016000000    -4.408000000
O     5.089000000    -1.753000000    -0.998000000
H     4.375000000    -1.610000000    -0.377000000
H     4.794000000    -1.329000000    -1.804000000
O     6.362000000    -6.349000000    -6.528000000
H     5.693000000    -5.700000000    -6.310000000
H     5.874000000    -7.162000000    -6.659000000
O     6.298000000     0.427000000    -3.671000000
H     6.909000000    -0.303000000    -3.572000000
H     5.453000000     0.070000000    -3.398000000
O     7.283000000     0.044000000    -7.193000000
H     7.408000000     0.660000000    -6.471000000
H     6.546000000     0.401000000    -7.688000000
O     6.974000000    -5.216000000    -4.100000000
H     6.592000000    -4.349000000    -4.233000000
H     7.047000000    -5.584000000    -4.981000000
O     4.124000000    -4.636000000    -1.565000000
H     4.520000000    -4.360000000    -0.739000000
H     4.313000000    -3.921000000    -2.172000000
O     8.051000000    -1.504000000    -4.627000000
H     8.564000000    -0.894000000    -5.156000000
H     8.701000000    -2.090000000    -4.240000000
O     0.503000000    -5.054000000    -7.010000000
H     0.730000000    -4.963000000    -6.084000000
H    -0.080000000    -5.813000000    -7.039000000
O     3.336000000    -0.950000000    -6.368000000
H     2.889000000    -0.945000000    -5.522000000
H     4.260000000    -0.819000000    -6.152000000
O     3.305000000    -3.124000000    -7.981000000
H     2.364000000    -3.016000000    -8.124000000
H     3.593000000    -2.280000000    -7.633000000
O     1.541000000    -4.449000000    -4.279000000
H     1.723000000    -3.523000000    -4.119000000
H     2.400000000    -4.837000000    -4.445000000
