215
-1428.35502
C    -1.623000000    -5.216000000    -0.712000000
H    -2.455000000    -4.740000000    -1.225000000
C    -1.349000000    -4.873000000     0.589000000
C    -0.261000000    -5.429000000     1.267000000
H     0.031000000    -5.098000000     2.260000000
C    -2.069000000    -3.660000000     1.219000000
O    -3.404000000    -3.575000000     0.647000000
H    -1.479000000    -2.769000000     0.960000000
O    -2.188000000    -3.785000000     2.664000000
C    -2.018000000    -2.677000000     3.373000000
C    -0.748000000    -2.373000000     3.835000000
H     0.069000000    -3.068000000     3.660000000
C    -0.514000000    -1.143000000     4.510000000
O     0.761000000    -0.963000000     4.764000000
C    -1.512000000    -0.210000000     4.659000000
C    -1.238000000     1.168000000     5.243000000
H    -2.192000000     1.550000000     5.611000000
C    -0.737000000     2.127000000     4.089000000
C    -1.594000000     2.916000000     3.441000000
H    -2.648000000     2.692000000     3.587000000
H    -0.490000000     1.162000000     6.039000000
C    -2.752000000    -0.467000000     4.124000000
H    -3.501000000     0.310000000     4.248000000
C    -3.015000000    -1.699000000     3.589000000
C    -4.392000000    -1.876000000     2.903000000
H    -5.154000000    -1.310000000     3.444000000
H    -4.761000000    -2.899000000     3.010000000
C    -4.392000000    -1.455000000     1.421000000
C    -4.898000000    -0.276000000     0.995000000
H    -5.250000000     0.405000000     1.766000000
C    -3.929000000    -2.333000000     0.382000000
C    -3.984000000    -2.045000000    -0.895000000
H    -3.548000000    -2.793000000    -1.552000000
C    -4.279000000    -0.712000000    -1.279000000
O    -4.013000000    -0.343000000    -2.594000000
C    -2.960000000     0.564000000    -2.758000000
C    -2.142000000     0.215000000    -3.922000000
C    -1.561000000     1.237000000    -4.708000000
H    -1.691000000     2.304000000    -4.551000000
C    -1.734000000    -1.083000000    -4.109000000
H    -2.261000000    -1.845000000    -3.540000000
O    -3.596000000     1.913000000    -2.965000000
H    -2.395000000     0.456000000    -1.821000000
C    -4.805000000     0.188000000    -0.335000000
C    -5.310000000     1.613000000    -0.730000000
H    -6.058000000     1.917000000     0.005000000
H    -5.857000000     1.698000000    -1.671000000
C    -4.217000000     2.577000000    -0.692000000
C    -3.837000000     3.160000000     0.509000000
H    -4.409000000     3.051000000     1.426000000
C    -3.426000000     2.758000000    -1.851000000
C    -2.144000000     3.444000000    -1.796000000
H    -1.515000000     3.463000000    -2.682000000
C    -1.806000000     4.108000000    -0.660000000
O    -0.642000000     4.769000000    -0.717000000
C     0.477000000     4.260000000     0.066000000
C     1.755000000     4.495000000    -0.779000000
C     1.600000000     4.870000000    -2.118000000
H     0.623000000     5.010000000    -2.575000000
C     3.071000000     4.209000000    -0.307000000
H     3.088000000     3.963000000     0.752000000
O     0.629000000     4.796000000     1.342000000
H     0.441000000     3.160000000     0.072000000
C    -2.633000000     3.956000000     0.472000000
C    -2.238000000     4.639000000     1.742000000
H    -3.112000000     4.929000000     2.329000000
H    -1.807000000     5.629000000     1.583000000
C    -1.183000000     3.872000000     2.508000000
C     0.147000000     4.046000000     2.363000000
C     1.115000000     3.250000000     3.059000000
H     2.173000000     3.374000000     2.840000000
C     0.631000000     2.267000000     3.902000000
O     1.449000000     1.358000000     4.390000000
C     1.419000000    -0.051000000     3.930000000
H     0.806000000    -0.130000000     3.020000000
C     2.850000000    -0.527000000     3.623000000
C     3.027000000    -1.856000000     3.326000000
H     2.154000000    -2.479000000     3.506000000
C     3.922000000     0.346000000     3.473000000
H     3.734000000     1.361000000     3.813000000
C     5.163000000    -0.031000000     2.943000000
O     6.222000000     0.877000000     2.802000000
C     5.343000000    -1.353000000     2.612000000
H     6.318000000    -1.620000000     2.210000000
C     4.213000000    -2.263000000     2.806000000
O     4.472000000    -3.585000000     2.758000000
C     3.610000000    -4.621000000     2.992000000
C     2.996000000    -5.339000000     1.968000000
H     3.207000000    -5.167000000     0.915000000
C     3.509000000    -5.064000000     4.293000000
H     4.086000000    -4.576000000     5.075000000
C     2.762000000    -6.265000000     4.637000000
H     2.755000000    -6.591000000     5.674000000
C     1.975000000    -6.850000000     3.609000000
H     1.295000000    -7.654000000     3.880000000
C     2.106000000    -6.372000000     2.295000000
O     1.498000000    -7.020000000     1.285000000
C     0.422000000    -6.451000000     0.621000000
C     0.138000000    -6.841000000    -0.670000000
H     0.802000000    -7.611000000    -1.055000000
C    -0.834000000    -6.243000000    -1.381000000
O    -1.274000000    -6.753000000    -2.555000000
C    -1.675000000    -5.898000000    -3.617000000
C    -0.821000000    -4.865000000    -4.046000000
H     0.198000000    -4.703000000    -3.705000000
C    -2.945000000    -6.021000000    -4.158000000
H    -3.605000000    -6.807000000    -3.800000000
C    -3.325000000    -5.128000000    -5.142000000
H    -4.341000000    -5.262000000    -5.504000000
C    -2.506000000    -4.122000000    -5.570000000
H    -2.918000000    -3.429000000    -6.300000000
C    -1.244000000    -3.865000000    -4.960000000
O    -0.519000000    -2.735000000    -5.420000000
C    -0.920000000    -1.388000000    -5.165000000
C    -0.329000000    -0.382000000    -5.968000000
H     0.303000000    -0.673000000    -6.803000000
C    -0.690000000     0.922000000    -5.691000000
O    -0.073000000     1.891000000    -6.541000000
C     0.315000000     3.143000000    -6.196000000
C     1.352000000     3.441000000    -5.419000000
H     2.040000000     2.716000000    -4.991000000
C    -0.463000000     4.165000000    -6.746000000
H    -1.359000000     3.915000000    -7.309000000
C    -0.285000000     5.531000000    -6.359000000
H    -0.956000000     6.348000000    -6.613000000
C     0.823000000     5.839000000    -5.597000000
H     0.966000000     6.830000000    -5.172000000
C     1.554000000     4.785000000    -5.077000000
O     2.703000000     5.012000000    -4.309000000
C     2.780000000     4.897000000    -2.959000000
C     3.985000000     4.606000000    -2.479000000
H     4.842000000     4.575000000    -3.146000000
C     4.196000000     4.287000000    -1.159000000
O     5.462000000     3.900000000    -0.784000000
C     5.769000000     3.645000000     0.516000000
C     5.930000000     4.706000000     1.385000000
H     5.817000000     5.695000000     0.946000000
C     6.218000000     4.513000000     2.704000000
H     6.204000000     5.334000000     3.416000000
C     6.336000000     3.214000000     3.203000000
H     6.404000000     2.980000000     4.263000000
C     6.125000000     2.170000000     2.304000000
C     5.830000000     2.364000000     0.995000000
H     5.806000000     1.458000000     0.396000000
C     0.372000000    -1.604000000    -1.247000000
H     0.066000000    -2.354000000    -1.971000000
C    -0.544000000    -0.877000000    -0.482000000
H    -1.575000000    -1.222000000    -0.481000000
C    -0.140000000     0.150000000     0.279000000
H    -0.816000000     0.792000000     0.794000000
C     1.160000000     0.510000000     0.363000000
H     1.362000000     1.402000000     0.951000000
C     2.143000000    -0.151000000    -0.412000000
H     3.137000000     0.291000000    -0.419000000
C     1.740000000    -1.216000000    -1.256000000
C     2.838000000    -1.900000000    -2.057000000
O     3.951000000    -1.374000000    -2.091000000
O     2.604000000    -2.743000000    -2.893000000
O     6.588000000    -6.060000000     0.715000000
H     6.360000000    -6.674000000     0.017000000
H     6.329000000    -5.204000000     0.375000000
O     4.162000000    -1.704000000    -7.489000000
H     3.774000000    -1.640000000    -6.616000000
H     3.541000000    -1.252000000    -8.061000000
O     5.516000000     0.631000000    -1.864000000
H     5.036000000    -0.141000000    -2.162000000
H     5.365000000     1.285000000    -2.547000000
O     8.416000000     0.810000000    -4.937000000
H     8.688000000     1.396000000    -5.644000000
H     7.720000000     0.278000000    -5.322000000
O     5.061000000    -4.972000000    -7.393000000
H     5.438000000    -4.604000000    -6.593000000
H     4.313000000    -4.407000000    -7.587000000
O     5.206000000    -3.838000000    -0.435000000
H     6.008000000    -3.622000000     0.040000000
H     4.672000000    -3.046000000    -0.378000000
O     5.702000000    -2.694000000    -3.797000000
H     5.271000000    -2.258000000    -3.062000000
H     5.764000000    -2.018000000    -4.472000000
O     7.699000000    -3.365000000     0.594000000
H     8.426000000    -3.970000000     0.736000000
H     8.082000000    -2.641000000     0.098000000
O     7.632000000    -0.597000000    -0.256000000
H     8.211000000    -0.186000000    -0.899000000
H     6.749000000    -0.389000000    -0.561000000
O     4.339000000     1.445000000    -6.260000000
H     5.152000000     1.231000000    -6.717000000
H     4.178000000     2.364000000    -6.474000000
O     6.136000000    -5.433000000    -4.166000000
H     5.807000000    -4.540000000    -4.069000000
H     5.480000000    -5.979000000    -3.731000000
O     7.720000000     2.822000000    -2.839000000
H     7.026000000     2.514000000    -2.255000000
H     8.182000000     2.026000000    -3.101000000
O     3.497000000    -5.275000000    -2.517000000
H     3.112000000    -4.430000000    -2.749000000
H     3.958000000    -5.111000000    -1.695000000
O     2.376000000    -7.028000000    -4.370000000
H     2.286000000    -6.249000000    -4.919000000
H     2.432000000    -6.687000000    -3.478000000
O     3.026000000    -1.056000000    -5.240000000
H     2.897000000    -1.398000000    -4.355000000
H     3.126000000    -0.111000000    -5.120000000
O     6.417000000    -0.795000000    -6.266000000
H     7.194000000    -0.613000000    -6.793000000
H     5.772000000    -1.121000000    -6.894000000
O     2.710000000    -4.233000000    -5.834000000
H     3.334000000    -3.840000000    -5.224000000
H     2.004000000    -3.591000000    -5.902000000
O     8.344000000    -3.052000000    -2.853000000
H     8.360000000    -2.540000000    -2.045000000
H     7.419000000    -3.252000000    -2.992000000
O     1.372000000    -4.926000000    -8.261000000
H     1.809000000    -4.648000000    -7.456000000
H     0.976000000    -5.769000000    -8.040000000
