215
-1438.12179
C    -1.017000000    -5.254000000    -0.527000000
H    -2.077000000    -5.415000000    -0.706000000
C    -0.621000000    -4.525000000     0.579000000
C     0.726000000    -4.457000000     0.825000000
H     1.003000000    -3.940000000     1.740000000
C    -1.573000000    -3.689000000     1.422000000
O    -2.937000000    -4.065000000     1.177000000
H    -1.455000000    -2.663000000     1.043000000
O    -1.179000000    -3.725000000     2.833000000
C    -1.182000000    -2.578000000     3.587000000
C     0.038000000    -2.050000000     4.020000000
H     0.988000000    -2.541000000     3.824000000
C     0.079000000    -0.756000000     4.490000000
O     1.367000000    -0.245000000     4.745000000
C    -1.039000000    -0.024000000     4.675000000
C    -1.008000000     1.410000000     5.262000000
H    -1.911000000     1.563000000     5.857000000
C    -0.801000000     2.514000000     4.270000000
C    -1.846000000     3.047000000     3.645000000
H    -2.864000000     2.682000000     3.747000000
H    -0.244000000     1.370000000     6.041000000
C    -2.300000000    -0.580000000     4.374000000
H    -3.229000000    -0.024000000     4.477000000
C    -2.329000000    -1.873000000     3.781000000
C    -3.684000000    -2.438000000     3.394000000
H    -4.543000000    -2.069000000     3.957000000
H    -3.703000000    -3.525000000     3.500000000
C    -4.048000000    -2.110000000     1.951000000
C    -4.764000000    -0.961000000     1.601000000
H    -5.006000000    -0.271000000     2.405000000
C    -3.601000000    -2.972000000     0.940000000
C    -3.856000000    -2.659000000    -0.381000000
H    -3.474000000    -3.320000000    -1.154000000
C    -4.402000000    -1.472000000    -0.709000000
O    -4.456000000    -1.227000000    -2.066000000
C    -3.410000000    -0.268000000    -2.520000000
C    -3.021000000    -0.640000000    -3.916000000
C    -2.459000000     0.297000000    -4.798000000
H    -2.511000000     1.349000000    -4.531000000
C    -2.909000000    -1.987000000    -4.315000000
H    -3.311000000    -2.735000000    -3.636000000
O    -3.982000000     1.078000000    -2.472000000
H    -2.526000000    -0.347000000    -1.870000000
C    -4.941000000    -0.610000000     0.284000000
C    -5.534000000     0.716000000    -0.078000000
H    -6.181000000     1.018000000     0.749000000
H    -6.161000000     0.729000000    -0.971000000
C    -4.421000000     1.778000000    -0.239000000
C    -4.122000000     2.675000000     0.802000000
H    -4.563000000     2.557000000     1.788000000
C    -3.728000000     1.917000000    -1.431000000
C    -2.782000000     2.801000000    -1.605000000
H    -2.289000000     2.948000000    -2.563000000
C    -2.415000000     3.670000000    -0.571000000
O    -1.367000000     4.486000000    -0.867000000
C    -0.140000000     4.144000000    -0.050000000
C     1.078000000     4.140000000    -0.969000000
C     1.030000000     3.635000000    -2.293000000
H     0.038000000     3.305000000    -2.590000000
C     2.370000000     4.627000000    -0.555000000
H     2.512000000     5.139000000     0.393000000
O    -0.004000000     4.942000000     1.139000000
H    -0.272000000     3.098000000     0.263000000
C    -3.113000000     3.630000000     0.673000000
C    -2.807000000     4.541000000     1.827000000
H    -3.708000000     4.510000000     2.444000000
H    -2.635000000     5.581000000     1.542000000
C    -1.634000000     4.013000000     2.663000000
C    -0.290000000     4.310000000     2.306000000
C     0.717000000     3.667000000     2.931000000
H     1.746000000     3.904000000     2.670000000
C     0.524000000     2.792000000     3.962000000
O     1.588000000     2.045000000     4.391000000
C     1.852000000     0.751000000     3.810000000
H     1.386000000     0.626000000     2.822000000
C     3.304000000     0.508000000     3.501000000
C     3.821000000    -0.799000000     3.391000000
H     3.131000000    -1.601000000     3.640000000
C     4.119000000     1.622000000     3.247000000
H     3.741000000     2.640000000     3.281000000
C     5.475000000     1.413000000     2.975000000
O     6.315000000     2.530000000     2.898000000
C     6.033000000     0.212000000     2.933000000
H     7.081000000     0.037000000     2.706000000
C     5.195000000    -0.902000000     3.082000000
O     5.752000000    -2.222000000     3.140000000
C     5.139000000    -3.386000000     2.761000000
C     4.442000000    -3.478000000     1.585000000
H     4.346000000    -2.646000000     0.892000000
C     5.162000000    -4.415000000     3.709000000
H     5.705000000    -4.279000000     4.641000000
C     4.525000000    -5.678000000     3.388000000
H     4.751000000    -6.514000000     4.045000000
C     3.859000000    -5.778000000     2.182000000
H     3.314000000    -6.686000000     1.934000000
C     3.728000000    -4.662000000     1.279000000
O     3.048000000    -4.842000000     0.111000000
C     1.699000000    -5.023000000    -0.041000000
C     1.263000000    -5.678000000    -1.164000000
H     2.055000000    -6.069000000    -1.799000000
C    -0.114000000    -5.902000000    -1.372000000
O    -0.570000000    -6.703000000    -2.417000000
C    -1.551000000    -6.238000000    -3.249000000
C    -1.384000000    -5.296000000    -4.223000000
H    -0.438000000    -4.763000000    -4.168000000
C    -2.776000000    -6.879000000    -3.196000000
H    -2.911000000    -7.665000000    -2.458000000
C    -3.866000000    -6.359000000    -3.927000000
H    -4.896000000    -6.688000000    -3.820000000
C    -3.689000000    -5.298000000    -4.846000000
H    -4.504000000    -5.005000000    -5.503000000
C    -2.410000000    -4.834000000    -5.047000000
O    -2.224000000    -3.711000000    -5.897000000
C    -2.342000000    -2.386000000    -5.519000000
C    -1.885000000    -1.394000000    -6.374000000
H    -1.418000000    -1.667000000    -7.317000000
C    -2.012000000    -0.079000000    -6.022000000
O    -1.435000000     0.859000000    -6.859000000
C    -0.779000000     1.999000000    -6.432000000
C     0.355000000     1.934000000    -5.605000000
H     0.800000000     1.007000000    -5.252000000
C    -1.340000000     3.198000000    -6.770000000
H    -2.173000000     3.284000000    -7.464000000
C    -0.747000000     4.353000000    -6.344000000
H    -1.113000000     5.335000000    -6.634000000
C     0.404000000     4.322000000    -5.510000000
H     0.945000000     5.218000000    -5.213000000
C     1.039000000     3.062000000    -5.176000000
O     2.109000000     2.987000000    -4.361000000
C     2.175000000     3.596000000    -3.128000000
C     3.373000000     4.138000000    -2.707000000
H     4.222000000     4.179000000    -3.384000000
C     3.519000000     4.575000000    -1.398000000
O     4.741000000     5.036000000    -0.973000000
C     5.217000000     4.977000000     0.371000000
C     5.523000000     6.194000000     1.000000000
H     5.535000000     7.122000000     0.433000000
C     6.196000000     6.149000000     2.234000000
H     6.647000000     7.037000000     2.671000000
C     6.549000000     4.892000000     2.772000000
H     7.206000000     4.778000000     3.630000000
C     6.004000000     3.728000000     2.278000000
C     5.407000000     3.774000000     1.028000000
H     5.003000000     2.888000000     0.546000000
C     0.170000000    -1.149000000    -1.320000000
H    -0.226000000    -1.984000000    -1.893000000
C    -0.522000000    -0.558000000    -0.260000000
H    -1.500000000    -0.905000000     0.065000000
C     0.041000000     0.428000000     0.457000000
H    -0.533000000     0.913000000     1.196000000
C     1.263000000     0.902000000     0.158000000
H     1.546000000     1.730000000     0.802000000
C     2.019000000     0.317000000    -0.859000000
H     3.081000000     0.553000000    -0.861000000
C     1.475000000    -0.693000000    -1.654000000
C     2.338000000    -1.399000000    -2.669000000
O     3.496000000    -1.257000000    -2.624000000
O     1.899000000    -2.396000000    -3.209000000
O     7.518000000    -6.383000000    -2.786000000
H     6.984000000    -5.706000000    -2.369000000
H     6.893000000    -7.067000000    -3.025000000
O     5.653000000    -6.678000000    -5.491000000
H     6.301000000    -6.771000000    -6.190000000
H     5.719000000    -5.760000000    -5.226000000
O     1.686000000    -2.197000000    -8.338000000
H     1.633000000    -2.595000000    -7.469000000
H     2.208000000    -1.405000000    -8.207000000
O     5.983000000     0.772000000    -1.034000000
H     6.159000000    -0.123000000    -1.322000000
H     5.455000000     1.151000000    -1.737000000
O     7.746000000    -1.725000000    -4.175000000
H     7.282000000    -1.272000000    -3.472000000
H     8.575000000    -1.996000000    -3.779000000
O     1.946000000     1.171000000    -8.540000000
H     2.826000000     1.185000000    -8.164000000
H     1.767000000     2.083000000    -8.766000000
O     3.812000000    -3.639000000    -6.506000000
H     4.218000000    -3.722000000    -7.369000000
H     3.742000000    -4.538000000    -6.186000000
O     8.412000000    -2.935000000    -1.129000000
H     8.335000000    -3.786000000    -0.697000000
H     7.802000000    -2.370000000    -0.655000000
O     5.871000000    -1.967000000    -1.480000000
H     5.052000000    -1.776000000    -1.937000000
H     6.208000000    -2.752000000    -1.912000000
O     4.284000000     1.369000000    -7.200000000
H     4.495000000     0.577000000    -6.705000000
H     4.441000000     2.085000000    -6.585000000
O     5.677000000    -5.134000000    -1.188000000
H     5.310000000    -6.018000000    -1.219000000
H     5.793000000    -4.956000000    -0.255000000
O     3.553000000    -4.448000000    -3.491000000
H     2.962000000    -3.696000000    -3.461000000
H     3.854000000    -4.552000000    -2.588000000
O     3.135000000    -6.568000000    -5.067000000
H     3.139000000    -5.802000000    -4.493000000
H     4.060000000    -6.736000000    -5.249000000
O     4.618000000    -1.054000000    -5.624000000
H     4.167000000    -1.784000000    -6.048000000
H     4.574000000    -1.255000000    -4.689000000
O     6.170000000    -4.126000000    -4.930000000
H     6.737000000    -3.372000000    -4.768000000
H     5.298000000    -3.748000000    -5.045000000
O     4.294000000     1.284000000    -3.056000000
H     4.187000000     0.338000000    -2.963000000
H     3.459000000     1.586000000    -3.413000000
O    -0.163000000    -5.349000000    -8.289000000
H     0.438000000    -6.080000000    -8.433000000
H     0.270000000    -4.809000000    -7.628000000
O     7.304000000    -1.745000000    -7.044000000
H     7.602000000    -1.719000000    -6.135000000
H     6.349000000    -1.776000000    -6.983000000
O     0.907000000    -3.684000000    -5.902000000
H     1.779000000    -4.077000000    -5.873000000
H     0.820000000    -3.233000000    -5.062000000
