215
-1435.76329
C    -1.747000000    -5.047000000    -0.128000000
H    -2.353000000    -4.559000000    -0.886000000
C    -1.598000000    -4.545000000     1.156000000
C    -0.727000000    -5.143000000     2.083000000
H    -0.516000000    -4.601000000     3.002000000
C    -2.295000000    -3.184000000     1.457000000
O    -3.488000000    -3.044000000     0.704000000
H    -1.625000000    -2.388000000     1.100000000
O    -2.667000000    -3.150000000     2.839000000
C    -2.652000000    -1.982000000     3.549000000
C    -1.513000000    -1.758000000     4.375000000
H    -0.830000000    -2.573000000     4.602000000
C    -1.217000000    -0.502000000     4.884000000
O     0.121000000    -0.301000000     5.075000000
C    -2.068000000     0.543000000     4.663000000
C    -1.662000000     1.929000000     5.069000000
H    -2.564000000     2.444000000     5.408000000
C    -0.975000000     2.688000000     3.977000000
C    -1.830000000     3.464000000     3.231000000
H    -2.906000000     3.496000000     3.381000000
H    -0.937000000     1.792000000     5.873000000
C    -3.267000000     0.319000000     3.901000000
H    -3.934000000     1.136000000     3.635000000
C    -3.545000000    -0.948000000     3.318000000
C    -4.807000000    -1.178000000     2.531000000
H    -5.584000000    -0.500000000     2.891000000
H    -5.161000000    -2.198000000     2.697000000
C    -4.593000000    -0.921000000     1.028000000
C    -5.008000000     0.262000000     0.431000000
H    -5.570000000     1.041000000     0.940000000
C    -3.860000000    -1.806000000     0.229000000
C    -3.589000000    -1.530000000    -1.132000000
H    -2.996000000    -2.238000000    -1.705000000
C    -3.964000000    -0.313000000    -1.668000000
O    -3.541000000    -0.022000000    -2.884000000
C    -2.440000000     0.824000000    -3.088000000
C    -1.544000000     0.038000000    -4.027000000
C    -0.847000000     0.814000000    -4.919000000
H    -0.963000000     1.895000000    -4.932000000
C    -1.482000000    -1.325000000    -4.128000000
H    -2.045000000    -1.998000000    -3.486000000
O    -2.815000000     2.128000000    -3.531000000
H    -1.830000000     0.896000000    -2.176000000
C    -4.677000000     0.557000000    -0.894000000
C    -5.076000000     1.896000000    -1.453000000
H    -5.848000000     2.402000000    -0.870000000
H    -5.468000000     1.697000000    -2.452000000
C    -3.873000000     2.886000000    -1.457000000
C    -3.629000000     3.625000000    -0.307000000
H    -4.413000000     3.591000000     0.445000000
C    -2.939000000     2.983000000    -2.474000000
C    -1.829000000     3.869000000    -2.326000000
H    -1.117000000     3.953000000    -3.143000000
C    -1.579000000     4.566000000    -1.157000000
O    -0.345000000     5.164000000    -1.094000000
C     0.638000000     4.446000000    -0.398000000
C     1.943000000     4.574000000    -1.160000000
C     1.984000000     4.626000000    -2.589000000
H     1.087000000     4.737000000    -3.193000000
C     3.088000000     4.634000000    -0.367000000
H     3.066000000     4.608000000     0.720000000
O     0.644000000     4.876000000     0.913000000
H     0.394000000     3.374000000    -0.367000000
C    -2.458000000     4.403000000    -0.119000000
C    -2.241000000     5.058000000     1.263000000
H    -3.265000000     5.086000000     1.641000000
H    -2.037000000     6.126000000     1.153000000
C    -1.260000000     4.221000000     2.136000000
C     0.119000000     4.180000000     1.888000000
C     0.951000000     3.434000000     2.639000000
H     2.017000000     3.358000000     2.440000000
C     0.366000000     2.539000000     3.601000000
O     1.145000000     1.625000000     4.258000000
C     0.847000000     0.246000000     3.913000000
H     0.254000000     0.226000000     2.986000000
C     2.190000000    -0.468000000     3.602000000
C     2.459000000    -1.784000000     3.987000000
H     1.740000000    -2.244000000     4.660000000
C     3.151000000     0.203000000     2.887000000
H     2.999000000     1.194000000     2.467000000
C     4.290000000    -0.511000000     2.424000000
O     5.097000000     0.089000000     1.429000000
C     4.472000000    -1.850000000     2.695000000
H     5.387000000    -2.359000000     2.405000000
C     3.633000000    -2.484000000     3.548000000
O     3.974000000    -3.705000000     4.110000000
C     3.120000000    -4.740000000     4.412000000
C     2.341000000    -5.272000000     3.387000000
H     2.488000000    -4.904000000     2.375000000
C     3.011000000    -5.327000000     5.681000000
H     3.632000000    -4.871000000     6.449000000
C     2.114000000    -6.365000000     5.909000000
H     1.979000000    -6.817000000     6.888000000
C     1.346000000    -6.861000000     4.888000000
H     0.695000000    -7.721000000     5.019000000
C     1.508000000    -6.334000000     3.585000000
O     0.857000000    -6.928000000     2.550000000
C    -0.050000000    -6.320000000     1.750000000
C    -0.191000000    -6.800000000     0.440000000
H     0.345000000    -7.628000000    -0.017000000
C    -0.952000000    -6.110000000    -0.414000000
O    -0.858000000    -6.537000000    -1.760000000
C    -1.334000000    -5.945000000    -2.876000000
C    -0.641000000    -4.881000000    -3.399000000
H     0.265000000    -4.476000000    -2.956000000
C    -2.491000000    -6.421000000    -3.436000000
H    -3.130000000    -7.214000000    -3.056000000
C    -3.010000000    -5.733000000    -4.560000000
H    -3.985000000    -6.035000000    -4.933000000
C    -2.324000000    -4.785000000    -5.212000000
H    -2.692000000    -4.219000000    -6.064000000
C    -1.110000000    -4.372000000    -4.637000000
O    -0.457000000    -3.315000000    -5.176000000
C    -0.565000000    -1.929000000    -5.053000000
C     0.231000000    -1.134000000    -5.868000000
H     0.677000000    -1.498000000    -6.790000000
C     0.113000000     0.247000000    -5.769000000
O     0.699000000     1.048000000    -6.759000000
C     1.054000000     2.387000000    -6.599000000
C     1.944000000     2.749000000    -5.527000000
H     2.230000000     2.118000000    -4.688000000
C     0.623000000     3.280000000    -7.489000000
H    -0.038000000     2.924000000    -8.276000000
C     1.107000000     4.594000000    -7.473000000
H     0.777000000     5.333000000    -8.198000000
C     1.903000000     5.051000000    -6.430000000
H     2.306000000     6.060000000    -6.399000000
C     2.364000000     4.112000000    -5.505000000
O     3.331000000     4.466000000    -4.567000000
C     3.218000000     4.516000000    -3.201000000
C     4.336000000     4.384000000    -2.388000000
H     5.280000000     4.161000000    -2.879000000
C     4.273000000     4.512000000    -1.011000000
O     5.360000000     4.462000000    -0.292000000
C     5.635000000     3.583000000     0.670000000
C     6.514000000     3.968000000     1.725000000
H     7.016000000     4.932000000     1.723000000
C     6.898000000     3.103000000     2.766000000
H     7.564000000     3.450000000     3.552000000
C     6.423000000     1.779000000     2.656000000
H     6.766000000     1.061000000     3.396000000
C     5.560000000     1.415000000     1.613000000
C     5.140000000     2.276000000     0.597000000
H     4.390000000     1.989000000    -0.136000000
C     2.436000000     0.501000000    -1.402000000
H     3.148000000     1.077000000    -1.989000000
C     1.170000000     0.998000000    -1.288000000
H     0.973000000     1.878000000    -1.895000000
C     0.208000000     0.421000000    -0.475000000
H    -0.772000000     0.872000000    -0.307000000
C     0.644000000    -0.677000000     0.303000000
H    -0.129000000    -1.146000000     0.906000000
C     1.923000000    -1.236000000     0.158000000
H     2.207000000    -2.131000000     0.705000000
C     2.888000000    -0.654000000    -0.706000000
C     4.276000000    -1.206000000    -0.969000000
O     4.440000000    -2.398000000    -0.793000000
O     5.065000000    -0.615000000    -1.710000000
O     4.554000000    -3.769000000    -3.068000000
H     5.234000000    -3.375000000    -3.615000000
H     4.558000000    -3.245000000    -2.267000000
O     9.422000000    -1.530000000    -2.959000000
H     9.515000000    -0.592000000    -2.796000000
H     8.477000000    -1.683000000    -2.948000000
O     3.814000000    -6.250000000    -1.182000000
H     3.133000000    -5.578000000    -1.184000000
H     3.334000000    -7.078000000    -1.205000000
O     2.815000000    -5.501000000    -4.062000000
H     3.225000000    -4.988000000    -3.366000000
H     2.897000000    -4.954000000    -4.843000000
O     8.693000000    -4.553000000    -2.943000000
H     8.608000000    -3.703000000    -2.512000000
H     7.833000000    -4.960000000    -2.843000000
O     7.590000000    -0.825000000    -0.832000000
H     7.839000000    -1.378000000    -0.092000000
H     6.655000000    -0.994000000    -0.954000000
O     7.170000000    -4.645000000     3.201000000
H     6.659000000    -4.685000000     2.392000000
H     6.651000000    -4.092000000     3.785000000
O     2.696000000    -2.031000000    -4.548000000
H     2.987000000    -2.940000000    -4.485000000
H     1.806000000    -2.039000000    -4.195000000
O     7.015000000     1.903000000    -4.952000000
H     6.650000000     2.382000000    -5.696000000
H     6.290000000     1.363000000    -4.636000000
O     5.525000000    -1.641000000    -5.812000000
H     4.641000000    -1.742000000    -5.458000000
H     5.494000000    -0.818000000    -6.300000000
O     2.108000000    -4.057000000    -1.087000000
H     1.623000000    -3.757000000    -0.318000000
H     2.839000000    -3.443000000    -1.164000000
O     8.687000000     1.032000000    -2.307000000
H     7.962000000     1.318000000    -2.863000000
H     8.271000000     0.512000000    -1.620000000
O     5.070000000    -6.770000000     1.702000000
H     5.253000000    -6.106000000     1.038000000
H     4.549000000    -7.430000000     1.244000000
O     8.590000000    -6.024000000     0.808000000
H     8.349000000    -5.099000000     0.870000000
H     7.991000000    -6.468000000     1.408000000
O     9.648000000    -1.503000000     1.623000000
H     9.547000000    -1.463000000     2.574000000
H     9.553000000    -0.596000000     1.333000000
O     6.667000000    -6.149000000    -1.722000000
H     5.720000000    -6.288000000    -1.709000000
H     6.996000000    -6.804000000    -2.338000000
O     6.789000000    -1.962000000    -3.604000000
H     6.225000000    -1.600000000    -2.920000000
H     6.365000000    -1.706000000    -4.423000000
O     6.145000000    -4.016000000     0.186000000
H     6.204000000    -4.729000000    -0.450000000
H     5.565000000    -3.375000000    -0.225000000
O     4.931000000     0.659000000    -4.063000000
H     4.813000000     0.227000000    -3.217000000
H     4.057000000     0.666000000    -4.453000000
