215
-1447.44588
C    -2.658000000    -4.651000000    -1.447000000
H    -3.598000000    -4.324000000    -1.883000000
C    -2.294000000    -4.218000000    -0.155000000
C    -0.983000000    -4.571000000     0.329000000
H    -0.624000000    -4.149000000     1.264000000
C    -3.095000000    -3.089000000     0.527000000
O    -4.419000000    -2.904000000     0.022000000
H    -2.570000000    -2.132000000     0.390000000
O    -3.056000000    -3.224000000     1.951000000
C    -2.838000000    -2.167000000     2.851000000
C    -1.675000000    -2.094000000     3.540000000
H    -1.057000000    -2.986000000     3.473000000
C    -1.200000000    -0.878000000     4.066000000
O     0.071000000    -0.871000000     4.657000000
C    -2.130000000     0.206000000     4.193000000
C    -1.866000000     1.362000000     5.082000000
H    -2.780000000     1.921000000     5.295000000
C    -1.000000000     2.362000000     4.358000000
C    -1.669000000     3.277000000     3.583000000
H    -2.715000000     3.490000000     3.788000000
H    -1.444000000     0.991000000     6.018000000
C    -3.372000000     0.026000000     3.660000000
H    -4.094000000     0.822000000     3.824000000
C    -3.732000000    -1.072000000     2.902000000
C    -5.053000000    -1.047000000     2.197000000
H    -5.768000000    -0.418000000     2.732000000
H    -5.635000000    -1.971000000     2.170000000
C    -4.964000000    -0.669000000     0.748000000
C    -5.083000000     0.679000000     0.429000000
H    -5.220000000     1.379000000     1.250000000
C    -4.677000000    -1.589000000    -0.278000000
C    -4.456000000    -1.123000000    -1.555000000
H    -4.288000000    -1.820000000    -2.372000000
C    -4.626000000     0.197000000    -1.941000000
O    -4.063000000     0.508000000    -3.133000000
C    -2.687000000     0.947000000    -3.029000000
C    -1.845000000     0.390000000    -4.099000000
C    -0.562000000     0.798000000    -4.264000000
H    -0.212000000     1.606000000    -3.628000000
C    -2.272000000    -0.752000000    -4.815000000
H    -3.285000000    -1.060000000    -4.572000000
O    -2.636000000     2.372000000    -3.117000000
H    -2.264000000     0.598000000    -2.075000000
C    -4.863000000     1.157000000    -0.900000000
C    -4.799000000     2.597000000    -1.161000000
H    -5.569000000     3.074000000    -0.551000000
H    -5.081000000     2.851000000    -2.184000000
C    -3.415000000     3.206000000    -0.937000000
C    -3.132000000     3.876000000     0.261000000
H    -3.884000000     3.938000000     1.043000000
C    -2.457000000     3.099000000    -1.962000000
C    -1.230000000     3.720000000    -1.754000000
H    -0.471000000     3.693000000    -2.532000000
C    -0.935000000     4.279000000    -0.500000000
O     0.381000000     4.767000000    -0.391000000
C     1.303000000     4.072000000     0.447000000
C     2.696000000     3.943000000    -0.168000000
C     2.896000000     4.189000000    -1.551000000
H     2.201000000     4.626000000    -2.263000000
C     3.702000000     3.437000000     0.647000000
H     3.535000000     3.267000000     1.707000000
O     1.239000000     4.637000000     1.732000000
H     1.014000000     3.011000000     0.460000000
C    -1.887000000     4.428000000     0.468000000
C    -1.679000000     4.992000000     1.847000000
H    -2.607000000     5.109000000     2.410000000
H    -1.138000000     5.939000000     1.787000000
C    -0.932000000     4.106000000     2.736000000
C     0.435000000     4.026000000     2.623000000
C     1.114000000     3.107000000     3.457000000
H     2.183000000     2.913000000     3.490000000
C     0.359000000     2.196000000     4.167000000
O     1.019000000     1.167000000     4.775000000
C     1.150000000    -0.035000000     4.086000000
H     0.992000000     0.117000000     3.008000000
C     2.474000000    -0.697000000     4.216000000
C     2.571000000    -2.020000000     3.925000000
H     1.657000000    -2.497000000     3.581000000
C     3.645000000     0.015000000     4.548000000
H     3.452000000     1.085000000     4.566000000
C     4.854000000    -0.613000000     4.617000000
O     5.997000000     0.100000000     4.809000000
C     4.985000000    -1.925000000     4.270000000
H     5.945000000    -2.435000000     4.264000000
C     3.829000000    -2.669000000     3.953000000
O     4.081000000    -3.976000000     3.620000000
C     3.167000000    -4.855000000     3.091000000
C     2.767000000    -4.812000000     1.739000000
H     3.300000000    -4.223000000     0.997000000
C     2.422000000    -5.694000000     4.000000000
H     2.743000000    -5.844000000     5.028000000
C     1.392000000    -6.419000000     3.572000000
H     0.882000000    -7.091000000     4.257000000
C     0.962000000    -6.341000000     2.291000000
H     0.074000000    -6.916000000     2.040000000
C     1.639000000    -5.553000000     1.318000000
O     1.182000000    -5.566000000    -0.041000000
C    -0.137000000    -5.264000000    -0.489000000
C    -0.602000000    -5.769000000    -1.677000000
H     0.118000000    -6.418000000    -2.168000000
C    -1.839000000    -5.429000000    -2.230000000
O    -2.218000000    -5.954000000    -3.443000000
C    -2.648000000    -5.273000000    -4.570000000
C    -2.138000000    -4.013000000    -4.946000000
H    -1.417000000    -3.447000000    -4.362000000
C    -3.579000000    -5.997000000    -5.324000000
H    -4.044000000    -6.902000000    -4.940000000
C    -3.942000000    -5.439000000    -6.566000000
H    -4.573000000    -5.977000000    -7.269000000
C    -3.436000000    -4.219000000    -6.990000000
H    -3.717000000    -3.758000000    -7.934000000
C    -2.543000000    -3.501000000    -6.174000000
O    -2.066000000    -2.321000000    -6.650000000
C    -1.533000000    -1.374000000    -5.809000000
C    -0.271000000    -0.833000000    -6.050000000
H     0.351000000    -1.113000000    -6.896000000
C     0.204000000     0.282000000    -5.330000000
O     1.552000000     0.652000000    -5.439000000
C     1.982000000     1.890000000    -5.425000000
C     2.939000000     2.224000000    -4.526000000
H     3.372000000     1.455000000    -3.891000000
C     1.434000000     2.843000000    -6.291000000
H     0.745000000     2.577000000    -7.089000000
C     1.850000000     4.153000000    -6.158000000
H     1.483000000     4.951000000    -6.798000000
C     2.807000000     4.512000000    -5.192000000
H     3.237000000     5.510000000    -5.176000000
C     3.317000000     3.558000000    -4.318000000
O     4.379000000     3.846000000    -3.461000000
C     4.127000000     3.865000000    -2.085000000
C     5.152000000     3.453000000    -1.329000000
H     6.084000000     3.352000000    -1.878000000
C     4.990000000     3.216000000    -0.006000000
O     5.999000000     2.674000000     0.751000000
C     6.064000000     2.650000000     2.129000000
C     6.432000000     3.759000000     2.892000000
H     6.586000000     4.685000000     2.345000000
C     6.490000000     3.653000000     4.281000000
H     6.595000000     4.644000000     4.714000000
C     6.285000000     2.439000000     4.891000000
H     6.326000000     2.400000000     5.977000000
C     6.111000000     1.289000000     4.159000000
C     6.000000000     1.376000000     2.718000000
H     5.940000000     0.429000000     2.188000000
C     1.176000000    -1.324000000    -1.721000000
H     0.937000000    -2.002000000    -2.536000000
C     0.166000000    -0.922000000    -0.827000000
H    -0.856000000    -1.234000000    -1.028000000
C     0.457000000    -0.168000000     0.257000000
H    -0.294000000     0.178000000     0.918000000
C     1.726000000     0.325000000     0.404000000
H     1.943000000     0.963000000     1.257000000
C     2.710000000     0.005000000    -0.520000000
H     3.729000000     0.372000000    -0.432000000
C     2.458000000    -0.802000000    -1.637000000
C     3.577000000    -1.140000000    -2.597000000
O     4.695000000    -0.647000000    -2.415000000
O     3.341000000    -1.735000000    -3.586000000
O     8.247000000    -4.414000000    -1.554000000
H     8.941000000    -3.763000000    -1.447000000
H     7.538000000    -3.940000000    -1.987000000
O     5.827000000     1.656000000    -5.967000000
H     5.819000000     2.564000000    -5.666000000
H     6.540000000     1.621000000    -6.605000000
O     1.817000000    -3.454000000    -8.100000000
H     2.153000000    -2.857000000    -7.431000000
H     2.596000000    -3.896000000    -8.439000000
O     3.537000000    -6.312000000    -3.412000000
H     3.245000000    -6.519000000    -4.300000000
H     4.119000000    -5.560000000    -3.520000000
O     6.415000000    -4.202000000    -8.055000000
H     5.989000000    -3.669000000    -7.384000000
H     5.710000000    -4.432000000    -8.661000000
O     0.620000000    -6.113000000    -5.142000000
H     0.700000000    -5.331000000    -4.596000000
H     0.482000000    -6.826000000    -4.519000000
O     6.056000000    -2.787000000    -1.625000000
H     5.642000000    -1.970000000    -1.904000000
H     6.445000000    -2.580000000    -0.775000000
O     6.526000000     0.361000000    -0.720000000
H     5.727000000     0.033000000    -1.132000000
H     6.250000000     1.153000000    -0.259000000
O     3.771000000    -6.844000000    -0.461000000
H     3.972000000    -6.529000000    -1.342000000
H     2.995000000    -6.347000000    -0.200000000
O     3.928000000     0.316000000    -7.316000000
H     4.305000000     1.133000000    -6.988000000
H     4.629000000    -0.328000000    -7.216000000
O     4.781000000    -3.913000000    -3.751000000
H     5.250000000    -3.685000000    -2.948000000
H     4.202000000    -3.168000000    -3.910000000
O     7.666000000    -1.859000000     0.505000000
H     7.342000000    -1.028000000     0.158000000
H     8.518000000    -1.979000000     0.085000000
O     7.606000000    -2.956000000    -4.481000000
H     7.115000000    -2.203000000    -4.153000000
H     6.985000000    -3.684000000    -4.440000000
O     1.218000000    -3.583000000    -4.174000000
H     1.419000000    -3.090000000    -4.969000000
H     1.808000000    -3.222000000    -3.513000000
O     7.285000000     0.692000000    -3.319000000
H     6.425000000     0.296000000    -3.179000000
H     7.184000000     1.597000000    -3.023000000
O     8.898000000     0.946000000    -5.526000000
H     8.404000000     0.562000000    -4.802000000
H     8.346000000     0.804000000    -6.295000000
O     2.768000000    -1.910000000    -6.072000000
H     2.970000000    -1.887000000    -5.136000000
H     3.007000000    -1.039000000    -6.390000000
O    10.006000000     0.703000000    -1.789000000
H     9.142000000     0.528000000    -2.162000000
H    10.571000000     0.842000000    -2.550000000
O     5.646000000    -0.847000000    -5.111000000
H     4.970000000    -0.875000000    -4.434000000
H     5.692000000     0.075000000    -5.364000000
