215
-1457.11187
C    -1.950000000    -4.404000000    -0.962000000
H    -3.017000000    -4.482000000    -1.151000000
C    -1.396000000    -3.678000000     0.164000000
C    -0.039000000    -3.713000000     0.330000000
H     0.484000000    -3.072000000     1.035000000
C    -2.352000000    -2.933000000     1.121000000
O    -3.725000000    -3.129000000     0.711000000
H    -2.123000000    -1.857000000     1.085000000
O    -2.197000000    -3.366000000     2.477000000
C    -2.091000000    -2.323000000     3.430000000
C    -0.827000000    -2.110000000     3.889000000
H    -0.025000000    -2.796000000     3.626000000
C    -0.453000000    -0.964000000     4.599000000
O     0.814000000    -0.735000000     4.963000000
C    -1.427000000     0.020000000     4.953000000
C    -1.012000000     1.277000000     5.763000000
H    -1.830000000     1.792000000     6.270000000
C    -0.508000000     2.205000000     4.686000000
C    -1.434000000     2.958000000     3.951000000
H    -2.487000000     2.989000000     4.221000000
H    -0.214000000     1.053000000     6.475000000
C    -2.760000000    -0.243000000     4.546000000
H    -3.549000000     0.451000000     4.826000000
C    -3.035000000    -1.321000000     3.625000000
C    -4.445000000    -1.531000000     3.094000000
H    -5.176000000    -0.927000000     3.636000000
H    -4.769000000    -2.558000000     3.270000000
C    -4.601000000    -1.133000000     1.559000000
C    -4.982000000     0.176000000     1.271000000
H    -5.040000000     0.940000000     2.042000000
C    -4.386000000    -2.013000000     0.492000000
C    -4.382000000    -1.489000000    -0.817000000
H    -4.065000000    -2.157000000    -1.614000000
C    -4.746000000    -0.187000000    -1.100000000
O    -4.692000000     0.217000000    -2.353000000
C    -3.432000000     0.878000000    -2.732000000
C    -2.778000000     0.295000000    -3.994000000
C    -1.722000000     1.015000000    -4.632000000
H    -1.455000000     2.008000000    -4.278000000
C    -3.198000000    -0.948000000    -4.534000000
H    -4.039000000    -1.516000000    -4.145000000
O    -3.532000000     2.318000000    -2.785000000
H    -2.676000000     0.704000000    -1.951000000
C    -5.045000000     0.623000000    -0.011000000
C    -5.279000000     2.098000000    -0.302000000
H    -5.952000000     2.517000000     0.449000000
H    -5.818000000     2.274000000    -1.236000000
C    -3.987000000     2.823000000    -0.410000000
C    -3.477000000     3.425000000     0.733000000
H    -4.033000000     3.258000000     1.652000000
C    -3.210000000     2.946000000    -1.610000000
C    -1.985000000     3.563000000    -1.585000000
H    -1.395000000     3.643000000    -2.494000000
C    -1.510000000     4.082000000    -0.415000000
O    -0.275000000     4.668000000    -0.476000000
C     0.727000000     3.979000000     0.303000000
C     1.977000000     3.978000000    -0.503000000
C     1.956000000     3.296000000    -1.714000000
H     1.024000000     2.941000000    -2.146000000
C     3.226000000     4.336000000     0.037000000
H     3.257000000     4.703000000     1.060000000
O     0.908000000     4.506000000     1.629000000
H     0.389000000     2.946000000     0.470000000
C    -2.243000000     4.012000000     0.804000000
C    -1.923000000     4.716000000     2.100000000
H    -2.829000000     4.962000000     2.659000000
H    -1.341000000     5.624000000     1.931000000
C    -1.012000000     3.758000000     2.859000000
C     0.361000000     3.792000000     2.621000000
C     1.259000000     3.022000000     3.356000000
H     2.298000000     3.123000000     3.053000000
C     0.845000000     2.303000000     4.421000000
O     1.773000000     1.385000000     4.874000000
C     1.585000000     0.133000000     4.222000000
H     1.143000000     0.317000000     3.231000000
C     2.966000000    -0.433000000     3.948000000
C     3.187000000    -1.819000000     3.896000000
H     2.388000000    -2.496000000     4.189000000
C     3.971000000     0.333000000     3.446000000
H     3.940000000     1.418000000     3.498000000
C     5.162000000    -0.246000000     2.951000000
O     6.127000000     0.543000000     2.399000000
C     5.402000000    -1.585000000     3.024000000
H     6.329000000    -2.052000000     2.702000000
C     4.407000000    -2.380000000     3.518000000
O     4.604000000    -3.786000000     3.650000000
C     3.805000000    -4.580000000     2.957000000
C     3.518000000    -4.407000000     1.603000000
H     4.030000000    -3.600000000     1.085000000
C     3.194000000    -5.628000000     3.663000000
H     3.318000000    -5.740000000     4.737000000
C     2.254000000    -6.488000000     3.010000000
H     1.840000000    -7.326000000     3.564000000
C     2.004000000    -6.275000000     1.635000000
H     1.243000000    -6.877000000     1.143000000
C     2.535000000    -5.150000000     0.957000000
O     2.103000000    -4.773000000    -0.296000000
C     0.774000000    -4.535000000    -0.511000000
C     0.223000000    -5.112000000    -1.630000000
H     0.642000000    -5.895000000    -2.256000000
C    -1.099000000    -4.983000000    -1.888000000
O    -1.651000000    -5.727000000    -2.974000000
C    -2.534000000    -5.338000000    -3.949000000
C    -2.456000000    -4.038000000    -4.558000000
H    -1.670000000    -3.346000000    -4.268000000
C    -3.465000000    -6.217000000    -4.433000000
H    -3.557000000    -7.144000000    -3.874000000
C    -4.191000000    -5.907000000    -5.519000000
H    -4.825000000    -6.718000000    -5.867000000
C    -4.053000000    -4.727000000    -6.239000000
H    -4.650000000    -4.447000000    -7.103000000
C    -3.225000000    -3.770000000    -5.676000000
O    -3.034000000    -2.575000000    -6.330000000
C    -2.588000000    -1.440000000    -5.705000000
C    -1.643000000    -0.690000000    -6.333000000
H    -1.219000000    -0.930000000    -7.305000000
C    -1.205000000     0.548000000    -5.836000000
O    -0.327000000     1.179000000    -6.663000000
C     0.668000000     2.004000000    -6.119000000
C     1.373000000     1.675000000    -5.047000000
H     1.348000000     0.650000000    -4.688000000
C     0.859000000     3.180000000    -6.895000000
H     0.129000000     3.432000000    -7.660000000
C     1.783000000     4.139000000    -6.459000000
H     1.785000000     5.112000000    -6.943000000
C     2.492000000     3.800000000    -5.309000000
H     3.280000000     4.468000000    -4.969000000
C     2.255000000     2.628000000    -4.632000000
O     3.084000000     2.346000000    -3.591000000
C     3.101000000     3.115000000    -2.495000000
C     4.285000000     3.537000000    -1.917000000
H     5.189000000     3.251000000    -2.448000000
C     4.394000000     4.177000000    -0.700000000
O     5.646000000     4.389000000    -0.248000000
C     6.077000000     3.833000000     0.898000000
C     6.701000000     4.603000000     1.908000000
H     7.028000000     5.614000000     1.679000000
C     6.981000000     4.027000000     3.200000000
H     7.644000000     4.540000000     3.892000000
C     6.691000000     2.689000000     3.385000000
H     7.133000000     2.237000000     4.269000000
C     6.137000000     1.931000000     2.382000000
C     5.802000000     2.475000000     1.147000000
H     5.430000000     1.877000000     0.318000000
C     0.435000000    -0.680000000    -1.508000000
H    -0.017000000    -1.270000000    -2.301000000
C    -0.326000000    -0.073000000    -0.515000000
H    -1.406000000     0.052000000    -0.509000000
C     0.345000000     0.535000000     0.553000000
H    -0.142000000     1.172000000     1.292000000
C     1.740000000     0.560000000     0.567000000
H     2.290000000     1.121000000     1.318000000
C     2.498000000    -0.116000000    -0.407000000
H     3.584000000    -0.127000000    -0.355000000
C     1.865000000    -0.740000000    -1.454000000
C     2.724000000    -1.364000000    -2.557000000
O     3.894000000    -1.085000000    -2.713000000
O     2.234000000    -2.161000000    -3.370000000
O     8.382000000    -3.896000000    -2.662000000
H     9.080000000    -3.428000000    -2.204000000
H     7.731000000    -3.223000000    -2.859000000
O     2.084000000    -5.849000000    -6.913000000
H     1.596000000    -5.119000000    -6.534000000
H     2.776000000    -5.434000000    -7.428000000
O     7.886000000     1.170000000    -2.853000000
H     7.172000000     1.087000000    -2.221000000
H     7.469000000     1.521000000    -3.641000000
O     3.533000000    -4.015000000    -8.182000000
H     3.739000000    -3.336000000    -7.539000000
H     3.173000000    -3.537000000    -8.929000000
O     2.879000000    -6.630000000    -4.254000000
H     2.607000000    -6.516000000    -5.165000000
H     3.133000000    -5.752000000    -3.969000000
O     5.614000000    -4.658000000    -5.912000000
H     5.162000000    -3.817000000    -5.977000000
H     4.990000000    -5.232000000    -5.468000000
O     6.358000000    -1.924000000    -3.292000000
H     5.454000000    -1.668000000    -3.108000000
H     6.584000000    -1.447000000    -4.091000000
O     7.257000000    -5.374000000     0.082000000
H     7.422000000    -4.432000000     0.096000000
H     7.992000000    -5.754000000     0.562000000
O     5.873000000     0.044000000    -1.389000000
H     5.132000000    -0.265000000    -1.910000000
H     6.316000000    -0.755000000    -1.104000000
O     5.359000000    -1.718000000    -8.161000000
H     5.305000000    -2.296000000    -8.921000000
H     4.652000000    -1.087000000    -8.289000000
O     3.244000000     0.097000000    -8.033000000
H     3.187000000     0.928000000    -7.561000000
H     3.136000000     0.337000000    -8.954000000
O     4.226000000    -4.398000000    -3.277000000
H     4.750000000    -4.176000000    -2.507000000
H     3.708000000    -3.612000000    -3.449000000
O     8.125000000    -2.800000000     0.901000000
H     8.486000000    -2.227000000     0.224000000
H     7.941000000    -2.216000000     1.636000000
O    -0.591000000    -3.814000000    -7.548000000
H    -0.249000000    -3.599000000    -6.680000000
H    -1.304000000    -4.430000000    -7.378000000
O     4.474000000     0.309000000    -4.895000000
H     4.188000000     0.004000000    -4.034000000
H     4.509000000     1.262000000    -4.812000000
O     6.607000000    -0.987000000    -5.807000000
H     5.890000000    -0.505000000    -5.394000000
H     6.259000000    -1.246000000    -6.661000000
O     0.980000000    -3.473000000    -5.226000000
H     1.170000000    -3.173000000    -4.337000000
H     1.626000000    -3.026000000    -5.773000000
O     9.071000000    -1.127000000    -1.109000000
H     9.770000000    -1.695000000    -1.430000000
H     8.899000000    -0.525000000    -1.833000000
O     3.296000000    -2.256000000    -5.990000000
H     3.229000000    -2.119000000    -5.045000000
H     3.283000000    -1.374000000    -6.362000000
