215
-1449.75010
C    -1.742000000    -4.530000000    -1.621000000
H    -2.633000000    -4.143000000    -2.109000000
C    -1.426000000    -4.126000000    -0.308000000
C    -0.228000000    -4.616000000     0.176000000
H     0.103000000    -4.365000000     1.181000000
C    -2.338000000    -3.248000000     0.464000000
O    -3.637000000    -3.234000000    -0.060000000
H    -1.929000000    -2.240000000     0.303000000
O    -2.447000000    -3.581000000     1.912000000
C    -2.307000000    -2.518000000     2.782000000
C    -1.148000000    -2.419000000     3.567000000
H    -0.332000000    -3.107000000     3.359000000
C    -0.939000000    -1.320000000     4.415000000
O     0.321000000    -1.202000000     4.904000000
C    -1.920000000    -0.313000000     4.506000000
C    -1.753000000     0.972000000     5.287000000
H    -2.703000000     1.367000000     5.654000000
C    -0.974000000     1.886000000     4.355000000
C    -1.712000000     2.821000000     3.660000000
H    -2.799000000     2.788000000     3.665000000
H    -1.137000000     0.682000000     6.142000000
C    -3.162000000    -0.591000000     3.957000000
H    -3.986000000     0.108000000     4.075000000
C    -3.350000000    -1.613000000     3.044000000
C    -4.648000000    -1.780000000     2.261000000
H    -5.508000000    -1.351000000     2.778000000
H    -4.855000000    -2.850000000     2.188000000
C    -4.579000000    -1.241000000     0.855000000
C    -4.981000000     0.091000000     0.608000000
H    -5.200000000     0.764000000     1.432000000
C    -4.224000000    -2.050000000    -0.191000000
C    -4.048000000    -1.569000000    -1.455000000
H    -3.772000000    -2.247000000    -2.259000000
C    -4.414000000    -0.246000000    -1.714000000
O    -4.152000000     0.260000000    -2.959000000
C    -2.896000000     0.988000000    -3.103000000
C    -2.098000000     0.665000000    -4.363000000
C    -1.408000000     1.747000000    -4.969000000
H    -1.634000000     2.777000000    -4.707000000
C    -1.957000000    -0.687000000    -4.712000000
H    -2.428000000    -1.496000000    -4.160000000
O    -3.198000000     2.375000000    -2.960000000
H    -2.258000000     0.672000000    -2.265000000
C    -4.906000000     0.576000000    -0.706000000
C    -5.117000000     2.052000000    -0.935000000
H    -5.818000000     2.415000000    -0.181000000
H    -5.582000000     2.288000000    -1.895000000
C    -3.840000000     2.866000000    -0.753000000
C    -3.475000000     3.447000000     0.457000000
H    -4.136000000     3.335000000     1.313000000
C    -2.930000000     2.949000000    -1.808000000
C    -1.732000000     3.709000000    -1.658000000
H    -0.930000000     3.661000000    -2.390000000
C    -1.386000000     4.296000000    -0.471000000
O    -0.090000000     4.745000000    -0.330000000
C     0.776000000     3.979000000     0.458000000
C     2.143000000     3.944000000    -0.238000000
C     2.233000000     3.765000000    -1.649000000
H     1.365000000     3.861000000    -2.296000000
C     3.315000000     3.779000000     0.553000000
H     3.220000000     3.864000000     1.632000000
O     0.777000000     4.587000000     1.765000000
H     0.542000000     2.910000000     0.347000000
C    -2.266000000     4.164000000     0.647000000
C    -2.006000000     4.674000000     2.066000000
H    -2.965000000     4.927000000     2.524000000
H    -1.516000000     5.647000000     2.000000000
C    -1.090000000     3.807000000     2.873000000
C     0.293000000     3.866000000     2.775000000
C     1.120000000     2.953000000     3.533000000
H     2.202000000     2.896000000     3.441000000
C     0.428000000     1.976000000     4.368000000
O     1.207000000     0.944000000     4.804000000
C     1.235000000    -0.307000000     4.165000000
H     0.909000000    -0.203000000     3.120000000
C     2.642000000    -0.916000000     4.195000000
C     2.827000000    -2.262000000     4.085000000
H     1.991000000    -2.925000000     4.295000000
C     3.707000000    -0.056000000     4.208000000
H     3.700000000     1.028000000     4.131000000
C     5.041000000    -0.548000000     4.070000000
O     6.141000000     0.306000000     3.943000000
C     5.244000000    -1.941000000     3.875000000
H     6.248000000    -2.302000000     3.665000000
C     4.120000000    -2.772000000     3.908000000
O     4.310000000    -4.180000000     3.807000000
C     3.368000000    -5.069000000     3.309000000
C     2.992000000    -4.961000000     1.986000000
H     3.409000000    -4.167000000     1.373000000
C     2.920000000    -6.156000000     4.063000000
H     3.247000000    -6.317000000     5.087000000
C     1.989000000    -7.050000000     3.558000000
H     1.547000000    -7.751000000     4.261000000
C     1.505000000    -6.923000000     2.230000000
H     0.801000000    -7.648000000     1.829000000
C     2.135000000    -5.941000000     1.403000000
O     1.833000000    -5.898000000     0.042000000
C     0.627000000    -5.433000000    -0.476000000
C     0.195000000    -5.893000000    -1.725000000
H     0.799000000    -6.624000000    -2.254000000
C    -1.008000000    -5.479000000    -2.264000000
O    -1.514000000    -5.905000000    -3.460000000
C    -1.855000000    -5.292000000    -4.627000000
C    -1.191000000    -4.153000000    -4.928000000
H    -0.442000000    -3.749000000    -4.252000000
C    -2.873000000    -5.793000000    -5.329000000
H    -3.447000000    -6.651000000    -4.988000000
C    -3.274000000    -5.060000000    -6.492000000
H    -4.135000000    -5.384000000    -7.071000000
C    -2.633000000    -3.848000000    -6.827000000
H    -2.945000000    -3.251000000    -7.680000000
C    -1.588000000    -3.440000000    -6.045000000
O    -0.980000000    -2.286000000    -6.389000000
C    -1.232000000    -0.970000000    -5.946000000
C    -0.643000000     0.119000000    -6.627000000
H    -0.056000000    -0.089000000    -7.517000000
C    -0.679000000     1.418000000    -6.124000000
O    -0.065000000     2.552000000    -6.671000000
C     0.734000000     3.501000000    -6.034000000
C     1.945000000     3.150000000    -5.413000000
H     2.162000000     2.089000000    -5.319000000
C     0.242000000     4.829000000    -5.898000000
H    -0.698000000     5.150000000    -6.339000000
C     0.978000000     5.811000000    -5.176000000
H     0.622000000     6.838000000    -5.185000000
C     2.124000000     5.344000000    -4.500000000
H     2.661000000     6.039000000    -3.859000000
C     2.567000000     4.021000000    -4.544000000
O     3.566000000     3.545000000    -3.674000000
C     3.475000000     3.717000000    -2.285000000
C     4.622000000     3.597000000    -1.460000000
H     5.634000000     3.486000000    -1.843000000
C     4.543000000     3.548000000    -0.071000000
O     5.743000000     3.487000000     0.564000000
C     5.780000000     3.242000000     1.911000000
C     5.620000000     4.230000000     2.860000000
H     5.382000000     5.259000000     2.604000000
C     5.423000000     3.898000000     4.224000000
H     5.172000000     4.682000000     4.934000000
C     5.681000000     2.573000000     4.593000000
H     5.612000000     2.276000000     5.636000000
C     5.978000000     1.623000000     3.652000000
C     5.990000000     1.974000000     2.291000000
H     6.107000000     1.163000000     1.576000000
C     0.768000000    -1.643000000    -1.263000000
H     0.521000000    -2.355000000    -2.045000000
C    -0.171000000    -0.783000000    -0.779000000
H    -1.223000000    -0.942000000    -1.006000000
C     0.159000000     0.139000000     0.243000000
H    -0.661000000     0.674000000     0.703000000
C     1.455000000     0.356000000     0.659000000
H     1.761000000     1.046000000     1.441000000
C     2.494000000    -0.402000000     0.042000000
H     3.521000000    -0.370000000     0.394000000
C     2.121000000    -1.440000000    -0.882000000
C     3.104000000    -2.421000000    -1.458000000
O     4.169000000    -2.377000000    -0.881000000
O     2.857000000    -3.014000000    -2.527000000
O     8.666000000    -1.518000000    -3.385000000
H     8.492000000    -1.990000000    -4.199000000
H     9.427000000    -1.961000000    -3.010000000
O     7.709000000     1.578000000    -0.961000000
H     6.899000000     1.070000000    -0.930000000
H     8.151000000     1.277000000    -1.755000000
O     2.982000000    -0.391000000    -6.209000000
H     2.592000000    -1.151000000    -5.777000000
H     3.508000000     0.028000000    -5.528000000
O     7.856000000    -3.374000000     2.320000000
H     7.500000000    -3.222000000     1.444000000
H     7.373000000    -4.133000000     2.646000000
O     2.011000000    -3.756000000    -6.942000000
H     1.601000000    -3.020000000    -6.487000000
H     1.559000000    -3.798000000    -7.784000000
O     4.789000000    -7.796000000    -5.192000000
H     4.731000000    -8.744000000    -5.313000000
H     4.201000000    -7.612000000    -4.460000000
O     6.396000000    -5.682000000    -6.117000000
H     5.739000000    -4.986000000    -6.138000000
H     5.975000000    -6.393000000    -5.633000000
O     4.570000000    -5.230000000    -2.574000000
H     4.156000000    -4.505000000    -2.107000000
H     4.959000000    -4.825000000    -3.349000000
O     5.892000000    -5.477000000     1.017000000
H     6.118000000    -5.102000000     0.166000000
H     4.955000000    -5.660000000     0.958000000
O     5.516000000    -0.028000000    -1.103000000
H     4.999000000    -0.811000000    -0.914000000
H     5.426000000     0.097000000    -2.047000000
O     4.548000000    -7.884000000    -1.956000000
H     5.494000000    -7.955000000    -2.084000000
H     4.343000000    -6.977000000    -2.183000000
O     4.726000000    -3.265000000    -6.790000000
H     4.646000000    -2.666000000    -6.047000000
H     3.843000000    -3.611000000    -6.915000000
O     4.446000000     1.052000000    -4.313000000
H     4.020000000     1.804000000    -3.903000000
H     5.263000000     1.403000000    -4.667000000
O     7.406000000    -2.478000000    -5.598000000
H     7.090000000    -1.626000000    -5.899000000
H     6.618000000    -3.019000000    -5.541000000
O     1.675000000    -5.603000000    -4.902000000
H     1.658000000    -4.932000000    -5.584000000
H     2.015000000    -5.152000000    -4.130000000
O     6.757000000    -3.006000000    -0.604000000
H     7.445000000    -2.360000000    -0.760000000
H     5.948000000    -2.494000000    -0.579000000
O     1.709000000    -2.198000000    -4.633000000
H     2.007000000    -2.724000000    -3.891000000
H     1.018000000    -1.643000000    -4.271000000
O     7.961000000    -5.249000000    -1.158000000
H     8.767000000    -5.404000000    -0.666000000
H     7.739000000    -4.337000000    -0.974000000
O     4.815000000    -2.125000000    -4.186000000
H     4.034000000    -2.283000000    -3.656000000
H     5.522000000    -2.030000000    -3.547000000
