215
-1434.29721
C    -1.411000000    -4.927000000    -0.549000000
H    -2.329000000    -4.390000000    -0.776000000
C    -0.782000000    -4.577000000     0.626000000
C     0.493000000    -5.118000000     0.856000000
H     1.036000000    -4.679000000     1.690000000
C    -1.440000000    -3.537000000     1.600000000
O    -2.901000000    -3.500000000     1.584000000
H    -1.065000000    -2.590000000     1.184000000
O    -0.871000000    -3.730000000     2.920000000
C    -0.552000000    -2.657000000     3.685000000
C     0.824000000    -2.414000000     3.792000000
H     1.569000000    -3.135000000     3.465000000
C     1.315000000    -1.263000000     4.469000000
O     2.600000000    -0.961000000     4.069000000
C     0.417000000    -0.271000000     4.966000000
C     0.992000000     1.073000000     5.445000000
H     0.398000000     1.473000000     6.270000000
C     0.962000000     1.989000000     4.221000000
C    -0.151000000     2.818000000     4.073000000
H    -0.981000000     2.690000000     4.762000000
H     2.005000000     0.936000000     5.830000000
C    -0.964000000    -0.529000000     4.879000000
H    -1.674000000     0.127000000     5.377000000
C    -1.467000000    -1.687000000     4.158000000
C    -2.933000000    -1.930000000     4.098000000
H    -3.420000000    -1.317000000     4.859000000
H    -3.097000000    -2.990000000     4.300000000
C    -3.568000000    -1.492000000     2.748000000
C    -4.068000000    -0.215000000     2.661000000
H    -4.085000000     0.528000000     3.454000000
C    -3.626000000    -2.354000000     1.644000000
C    -4.116000000    -1.851000000     0.481000000
H    -4.087000000    -2.507000000    -0.385000000
C    -4.652000000    -0.595000000     0.364000000
O    -4.865000000    -0.190000000    -0.884000000
C    -3.937000000     0.637000000    -1.529000000
C    -3.649000000     0.199000000    -2.962000000
C    -3.014000000     1.150000000    -3.787000000
H    -2.777000000     2.139000000    -3.402000000
C    -3.950000000    -1.104000000    -3.432000000
H    -4.402000000    -1.856000000    -2.791000000
O    -4.277000000     2.071000000    -1.392000000
H    -2.972000000     0.608000000    -1.001000000
C    -4.604000000     0.218000000     1.512000000
C    -5.123000000     1.578000000     1.413000000
H    -5.581000000     1.947000000     2.333000000
H    -5.802000000     1.656000000     0.561000000
C    -3.988000000     2.526000000     0.998000000
C    -3.245000000     3.116000000     2.009000000
H    -3.511000000     2.984000000     3.054000000
C    -3.662000000     2.756000000    -0.374000000
C    -2.599000000     3.687000000    -0.634000000
H    -2.434000000     3.915000000    -1.684000000
C    -1.847000000     4.255000000     0.343000000
O    -0.803000000     5.019000000    -0.006000000
C     0.462000000     4.379000000     0.065000000
C     1.312000000     4.668000000    -1.192000000
C     0.661000000     4.672000000    -2.419000000
H    -0.409000000     4.482000000    -2.431000000
C     2.723000000     4.813000000    -1.127000000
H     3.273000000     4.830000000    -0.190000000
O     0.995000000     4.810000000     1.309000000
H     0.270000000     3.296000000     0.087000000
C    -2.149000000     3.959000000     1.716000000
C    -1.425000000     4.595000000     2.847000000
H    -2.140000000     4.592000000     3.673000000
H    -1.229000000     5.646000000     2.624000000
C    -0.159000000     3.834000000     3.143000000
C     0.984000000     4.035000000     2.405000000
C     2.107000000     3.185000000     2.450000000
H     2.919000000     3.369000000     1.751000000
C     2.075000000     2.097000000     3.328000000
O     3.132000000     1.218000000     3.376000000
C     2.900000000    -0.082000000     2.979000000
H     2.003000000    -0.132000000     2.344000000
C     3.985000000    -0.616000000     2.009000000
C     4.331000000    -1.992000000     2.003000000
H     3.859000000    -2.635000000     2.741000000
C     4.642000000     0.258000000     1.097000000
H     4.284000000     1.279000000     0.991000000
C     5.626000000    -0.244000000     0.287000000
O     6.238000000     0.605000000    -0.577000000
C     6.008000000    -1.587000000     0.345000000
H     6.797000000    -1.950000000    -0.308000000
C     5.384000000    -2.461000000     1.231000000
O     5.754000000    -3.680000000     1.406000000
C     4.980000000    -4.753000000     1.709000000
C     4.111000000    -5.313000000     0.752000000
H     4.109000000    -4.957000000    -0.275000000
C     4.992000000    -5.168000000     3.053000000
H     5.656000000    -4.649000000     3.739000000
C     4.171000000    -6.260000000     3.429000000
H     4.091000000    -6.690000000     4.424000000
C     3.274000000    -6.720000000     2.494000000
H     2.453000000    -7.355000000     2.816000000
C     3.209000000    -6.257000000     1.195000000
O     2.176000000    -6.762000000     0.356000000
C     1.006000000    -6.116000000    -0.011000000
C     0.364000000    -6.457000000    -1.132000000
H     0.799000000    -7.273000000    -1.703000000
C    -0.861000000    -5.814000000    -1.450000000
O    -1.501000000    -6.280000000    -2.568000000
C    -2.686000000    -5.634000000    -3.007000000
C    -2.642000000    -4.429000000    -3.815000000
H    -1.686000000    -3.954000000    -4.022000000
C    -3.936000000    -6.232000000    -2.805000000
H    -3.902000000    -7.149000000    -2.221000000
C    -5.147000000    -5.640000000    -3.235000000
H    -6.113000000    -6.099000000    -3.041000000
C    -5.024000000    -4.509000000    -4.069000000
H    -5.909000000    -3.952000000    -4.365000000
C    -3.832000000    -3.871000000    -4.297000000
O    -3.765000000    -2.759000000    -5.171000000
C    -3.653000000    -1.461000000    -4.763000000
C    -2.998000000    -0.490000000    -5.590000000
H    -2.891000000    -0.683000000    -6.654000000
C    -2.708000000     0.772000000    -5.114000000
O    -2.250000000     1.649000000    -6.058000000
C    -1.983000000     2.988000000    -6.064000000
C    -0.755000000     3.395000000    -5.799000000
H     0.020000000     2.642000000    -5.916000000
C    -3.030000000     3.956000000    -5.957000000
H    -4.069000000     3.649000000    -6.043000000
C    -2.756000000     5.205000000    -5.428000000
H    -3.591000000     5.890000000    -5.301000000
C    -1.493000000     5.550000000    -5.025000000
H    -1.222000000     6.509000000    -4.592000000
C    -0.493000000     4.654000000    -5.218000000
O     0.820000000     4.932000000    -4.874000000
C     1.394000000     4.813000000    -3.633000000
C     2.775000000     4.902000000    -3.574000000
H     3.360000000     4.964000000    -4.488000000
C     3.440000000     4.847000000    -2.323000000
O     4.769000000     4.912000000    -2.221000000
C     5.441000000     4.156000000    -1.283000000
C     6.092000000     4.710000000    -0.202000000
H     6.134000000     5.774000000     0.015000000
C     6.699000000     3.921000000     0.774000000
H     7.144000000     4.399000000     1.643000000
C     6.827000000     2.563000000     0.602000000
H     7.409000000     1.937000000     1.274000000
C     6.179000000     1.991000000    -0.461000000
C     5.472000000     2.745000000    -1.393000000
H     4.934000000     2.285000000    -2.218000000
C    -0.496000000    -0.596000000    -2.239000000
H    -1.049000000    -1.066000000    -3.049000000
C    -0.954000000    -0.564000000    -0.892000000
H    -1.836000000    -1.097000000    -0.547000000
C    -0.312000000     0.164000000     0.074000000
H    -0.660000000     0.110000000     1.123000000
C     0.972000000     0.621000000    -0.177000000
H     1.641000000     1.106000000     0.530000000
C     1.490000000     0.512000000    -1.478000000
H     2.464000000     0.935000000    -1.712000000
C     0.746000000    -0.091000000    -2.535000000
C     1.331000000    -0.265000000    -3.969000000
O     2.310000000     0.408000000    -4.362000000
O     0.693000000    -0.941000000    -4.786000000
O     4.437000000    -0.429000000    -5.188000000
H     5.102000000    -0.465000000    -4.500000000
H     3.674000000    -0.038000000    -4.763000000
O     2.672000000    -2.294000000    -6.035000000
H     3.478000000    -1.814000000    -5.845000000
H     1.972000000    -1.670000000    -5.848000000
O     2.073000000     3.154000000    -7.389000000
H     1.789000000     3.564000000    -8.206000000
H     2.578000000     2.390000000    -7.668000000
O     6.151000000     1.568000000    -6.349000000
H     6.023000000     1.366000000    -7.276000000
H     5.362000000     1.236000000    -5.921000000
O     4.163000000    -4.502000000    -5.784000000
H     3.595000000    -3.759000000    -5.985000000
H     4.854000000    -4.133000000    -5.234000000
O     2.567000000    -2.608000000    -0.599000000
H     3.317000000    -2.251000000    -0.124000000
H     1.925000000    -1.898000000    -0.604000000
O     0.138000000    -6.367000000    -5.503000000
H     0.412000000    -5.974000000    -4.675000000
H     0.154000000    -5.643000000    -6.129000000
O    -0.300000000    -1.767000000    -7.050000000
H    -0.189000000    -0.920000000    -7.481000000
H    -0.115000000    -1.592000000    -6.127000000
O     3.742000000     0.042000000    -9.936000000
H     3.528000000     0.007000000    -9.004000000
H     3.911000000    -0.869000000   -10.177000000
O     0.897000000     1.044000000   -10.312000000
H     0.290000000     0.757000000    -9.629000000
H     1.759000000     0.781000000    -9.991000000
O     6.249000000    -3.966000000    -4.343000000
H     7.031000000    -4.478000000    -4.549000000
H     6.463000000    -3.519000000    -3.524000000
O     3.759000000     2.622000000    -5.164000000
H     3.159000000     2.277000000    -4.503000000
H     3.202000000     3.135000000    -5.750000000
O     1.171000000    -3.873000000    -4.492000000
H     1.421000000    -3.920000000    -5.415000000
H     1.163000000    -2.937000000    -4.294000000
O    -1.072000000    -4.576000000    -7.469000000
H    -2.027000000    -4.626000000    -7.515000000
H    -0.869000000    -3.668000000    -7.695000000
O     3.117000000    -4.979000000    -2.771000000
H     3.152000000    -4.475000000    -3.584000000
H     2.510000000    -4.492000000    -2.214000000
O     6.023000000    -0.558000000    -2.969000000
H     5.876000000     0.138000000    -2.329000000
H     6.955000000    -0.763000000    -2.891000000
O    -1.110000000     0.673000000    -8.515000000
H    -1.479000000     1.109000000    -7.747000000
H    -1.868000000     0.474000000    -9.065000000
O     1.486000000    -2.579000000    -9.125000000
H     0.662000000    -2.450000000    -8.657000000
H     2.128000000    -2.756000000    -8.437000000
O     2.845000000     0.539000000    -7.436000000
H     2.258000000     0.953000000    -6.803000000
H     3.412000000    -0.021000000    -6.906000000
