215
-1448.34000
C    -1.865000000    -4.683000000    -0.082000000
H    -2.748000000    -4.096000000    -0.323000000
C    -1.269000000    -4.444000000     1.175000000
C    -0.216000000    -5.234000000     1.579000000
H     0.220000000    -5.039000000     2.556000000
C    -1.589000000    -3.096000000     1.891000000
O    -3.046000000    -2.911000000     1.806000000
H    -1.032000000    -2.360000000     1.293000000
O    -1.215000000    -3.221000000     3.242000000
C    -0.784000000    -2.101000000     3.947000000
C     0.589000000    -2.013000000     3.912000000
H     1.145000000    -2.894000000     3.601000000
C     1.157000000    -0.873000000     4.451000000
O     2.474000000    -0.701000000     4.283000000
C     0.336000000     0.183000000     4.899000000
C     0.907000000     1.472000000     5.320000000
H     0.212000000     1.942000000     6.019000000
C     1.075000000     2.471000000     4.113000000
C     0.043000000     3.357000000     3.782000000
H    -0.787000000     3.644000000     4.421000000
H     1.873000000     1.411000000     5.827000000
C    -1.043000000     0.065000000     4.864000000
H    -1.709000000     0.896000000     5.084000000
C    -1.676000000    -1.149000000     4.450000000
C    -3.142000000    -1.215000000     4.278000000
H    -3.640000000    -0.587000000     5.020000000
H    -3.458000000    -2.255000000     4.374000000
C    -3.567000000    -0.748000000     2.898000000
C    -4.091000000     0.547000000     2.662000000
H    -4.147000000     1.180000000     3.545000000
C    -3.536000000    -1.650000000     1.789000000
C    -4.068000000    -1.184000000     0.566000000
H    -4.180000000    -1.864000000    -0.275000000
C    -4.562000000     0.063000000     0.422000000
O    -4.951000000     0.302000000    -0.827000000
C    -3.920000000     0.940000000    -1.624000000
C    -3.923000000     0.331000000    -3.047000000
C    -3.085000000     0.974000000    -4.019000000
H    -2.629000000     1.902000000    -3.684000000
C    -4.290000000    -0.958000000    -3.265000000
H    -4.786000000    -1.494000000    -2.460000000
O    -4.058000000     2.444000000    -1.611000000
H    -2.915000000     0.788000000    -1.204000000
C    -4.505000000     0.991000000     1.408000000
C    -4.932000000     2.362000000     1.266000000
H    -5.212000000     2.919000000     2.163000000
H    -5.807000000     2.312000000     0.614000000
C    -3.775000000     3.142000000     0.712000000
C    -2.962000000     3.860000000     1.590000000
H    -3.338000000     4.013000000     2.598000000
C    -3.420000000     3.156000000    -0.646000000
C    -2.359000000     3.893000000    -1.116000000
H    -2.253000000     3.886000000    -2.198000000
C    -1.538000000     4.553000000    -0.188000000
O    -0.353000000     5.048000000    -0.713000000
C     0.840000000     4.251000000    -0.485000000
C     1.651000000     4.187000000    -1.810000000
C     1.079000000     4.153000000    -3.089000000
H     0.016000000     4.344000000    -3.213000000
C     3.016000000     3.936000000    -1.735000000
H     3.562000000     3.884000000    -0.797000000
O     1.537000000     4.787000000     0.648000000
H     0.648000000     3.177000000    -0.341000000
C    -1.802000000     4.544000000     1.164000000
C    -0.902000000     5.145000000     2.165000000
H    -1.573000000     5.298000000     3.013000000
H    -0.375000000     6.047000000     1.849000000
C     0.191000000     4.166000000     2.619000000
C     1.372000000     4.027000000     1.815000000
C     2.336000000     3.048000000     2.140000000
H     3.214000000     2.873000000     1.523000000
C     2.192000000     2.316000000     3.278000000
O     3.098000000     1.310000000     3.427000000
C     2.843000000     0.018000000     3.068000000
H     1.969000000    -0.021000000     2.402000000
C     3.962000000    -0.662000000     2.280000000
C     4.028000000    -2.068000000     2.196000000
H     3.319000000    -2.702000000     2.724000000
C     4.916000000     0.097000000     1.573000000
H     5.027000000     1.175000000     1.659000000
C     5.910000000    -0.519000000     0.752000000
O     6.900000000     0.160000000     0.040000000
C     5.893000000    -1.918000000     0.739000000
H     6.746000000    -2.406000000     0.274000000
C     5.054000000    -2.664000000     1.498000000
O     5.279000000    -4.039000000     1.545000000
C     4.310000000    -4.932000000     2.120000000
C     3.334000000    -5.610000000     1.373000000
H     3.271000000    -5.468000000     0.297000000
C     4.310000000    -5.112000000     3.457000000
H     4.934000000    -4.460000000     4.063000000
C     3.414000000    -6.047000000     4.045000000
H     3.485000000    -6.251000000     5.110000000
C     2.497000000    -6.740000000     3.319000000
H     1.872000000    -7.520000000     3.746000000
C     2.373000000    -6.396000000     1.944000000
O     1.358000000    -6.965000000     1.212000000
C     0.327000000    -6.154000000     0.740000000
C    -0.285000000    -6.478000000    -0.448000000
H     0.079000000    -7.348000000    -0.989000000
C    -1.442000000    -5.796000000    -0.845000000
O    -1.985000000    -6.019000000    -2.066000000
C    -3.176000000    -5.508000000    -2.365000000
C    -3.308000000    -4.560000000    -3.376000000
H    -2.453000000    -4.192000000    -3.939000000
C    -4.305000000    -6.063000000    -1.799000000
H    -4.245000000    -6.867000000    -1.069000000
C    -5.514000000    -5.580000000    -2.178000000
H    -6.389000000    -5.996000000    -1.684000000
C    -5.669000000    -4.533000000    -3.108000000
H    -6.637000000    -4.121000000    -3.384000000
C    -4.513000000    -3.917000000    -3.689000000
O    -4.592000000    -2.813000000    -4.618000000
C    -4.125000000    -1.549000000    -4.485000000
C    -3.495000000    -0.868000000    -5.520000000
H    -3.202000000    -1.387000000    -6.429000000
C    -2.877000000     0.328000000    -5.256000000
O    -1.964000000     0.827000000    -6.154000000
C    -1.454000000     2.102000000    -6.257000000
C    -0.154000000     2.483000000    -5.861000000
H     0.643000000     1.791000000    -5.597000000
C    -2.383000000     3.109000000    -6.468000000
H    -3.417000000     2.815000000    -6.635000000
C    -2.146000000     4.472000000    -6.301000000
H    -2.983000000     5.135000000    -6.506000000
C    -0.833000000     4.882000000    -5.971000000
H    -0.539000000     5.908000000    -5.768000000
C     0.100000000     3.865000000    -5.801000000
O     1.339000000     4.222000000    -5.480000000
C     1.887000000     4.083000000    -4.250000000
C     3.241000000     3.790000000    -4.134000000
H     3.951000000     3.770000000    -4.957000000
C     3.743000000     3.681000000    -2.870000000
O     5.180000000     3.595000000    -2.886000000
C     5.924000000     3.180000000    -1.780000000
C     6.684000000     4.169000000    -1.153000000
H     6.600000000     5.217000000    -1.427000000
C     7.550000000     3.821000000    -0.108000000
H     8.173000000     4.551000000     0.403000000
C     7.646000000     2.445000000     0.290000000
H     8.480000000     2.071000000     0.879000000
C     6.723000000     1.507000000    -0.249000000
C     5.833000000     1.899000000    -1.286000000
H     5.236000000     1.259000000    -1.931000000
C    -0.059000000    -0.966000000    -2.425000000
H    -0.507000000    -1.376000000    -3.327000000
C    -0.717000000    -0.791000000    -1.271000000
H    -1.666000000    -1.312000000    -1.176000000
C    -0.166000000    -0.041000000    -0.250000000
H    -0.671000000    -0.002000000     0.656000000
C     1.047000000     0.552000000    -0.379000000
H     1.507000000     1.051000000     0.470000000
C     1.712000000     0.477000000    -1.573000000
H     2.604000000     1.095000000    -1.635000000
C     1.168000000    -0.349000000    -2.598000000
C     2.028000000    -0.567000000    -3.834000000
O     3.234000000    -0.687000000    -3.717000000
O     1.491000000    -0.860000000    -4.923000000
O     2.948000000    -4.973000000    -6.486000000
H     2.589000000    -4.627000000    -5.669000000
H     3.839000000    -4.626000000    -6.521000000
O    -1.640000000    -1.993000000    -8.532000000
H    -2.228000000    -1.279000000    -8.776000000
H    -1.658000000    -2.586000000    -9.283000000
O     3.368000000    -1.946000000    -6.196000000
H     3.849000000    -1.598000000    -5.445000000
H     2.459000000    -1.689000000    -6.038000000
O     3.185000000    -3.368000000    -2.546000000
H     2.819000000    -2.587000000    -2.130000000
H     3.985000000    -3.061000000    -2.972000000
O     6.810000000    -0.620000000    -7.263000000
H     6.127000000    -0.852000000    -6.634000000
H     6.349000000    -0.538000000    -8.098000000
O     2.764000000     2.053000000    -7.700000000
H     1.978000000     1.570000000    -7.443000000
H     2.433000000     2.880000000    -8.052000000
O     6.224000000     2.757000000    -5.927000000
H     6.978000000     2.170000000    -5.873000000
H     5.506000000     2.263000000    -5.532000000
O     1.173000000    -4.849000000    -3.707000000
H     0.591000000    -4.326000000    -4.258000000
H     1.755000000    -4.208000000    -3.298000000
O    -0.706000000    -6.857000000    -4.590000000
H    -0.110000000    -6.114000000    -4.501000000
H    -1.313000000    -6.768000000    -3.855000000
O    -0.350000000    -3.175000000    -5.522000000
H    -0.729000000    -3.095000000    -6.397000000
H     0.073000000    -2.331000000    -5.366000000
O     5.148000000     0.607000000    -9.313000000
H     5.009000000     1.432000000    -9.778000000
H     4.882000000     0.792000000    -8.412000000
O     2.892000000    -2.009000000    -8.915000000
H     2.944000000    -1.967000000    -7.960000000
H     3.254000000    -1.174000000    -9.212000000
O     4.238000000     0.844000000    -5.635000000
H     3.674000000     0.301000000    -5.084000000
H     3.631000000     1.348000000    -6.176000000
O     2.349000000    -7.525000000    -3.711000000
H     1.858000000    -8.304000000    -3.450000000
H     1.703000000    -6.819000000    -3.699000000
O     4.182000000    -5.798000000    -2.553000000
H     3.579000000    -6.398000000    -2.993000000
H     3.664000000    -5.006000000    -2.404000000
O     5.565000000    -2.466000000    -3.458000000
H     6.448000000    -2.495000000    -3.091000000
H     5.319000000    -1.542000000    -3.418000000
O     1.157000000     0.525000000   -10.186000000
H     1.105000000     0.261000000    -9.268000000
H     1.269000000    -0.296000000   -10.666000000
O     5.371000000    -4.544000000    -5.096000000
H     5.198000000    -5.227000000    -4.448000000
H     5.407000000    -3.734000000    -4.587000000
O     0.782000000    -0.069000000    -7.139000000
H     1.211000000    -0.301000000    -6.315000000
H    -0.103000000    -0.426000000    -7.057000000
