215
-1463.95618
C    -2.377000000    -4.580000000    -0.726000000
H    -3.295000000    -4.030000000    -0.914000000
C    -1.909000000    -4.411000000     0.602000000
C    -0.691000000    -5.153000000     0.944000000
H    -0.304000000    -4.992000000     1.947000000
C    -2.401000000    -3.312000000     1.553000000
O    -3.746000000    -2.947000000     1.310000000
H    -1.902000000    -2.349000000     1.370000000
O    -2.313000000    -3.545000000     2.995000000
C    -1.794000000    -2.454000000     3.710000000
C    -0.402000000    -2.325000000     3.769000000
H     0.202000000    -3.137000000     3.373000000
C     0.165000000    -1.165000000     4.268000000
O     1.558000000    -1.163000000     4.273000000
C    -0.592000000    -0.089000000     4.679000000
C     0.027000000     1.153000000     5.315000000
H    -0.772000000     1.533000000     5.955000000
C     0.469000000     2.174000000     4.303000000
C    -0.356000000     3.167000000     3.889000000
H    -1.396000000     3.256000000     4.193000000
H     0.836000000     0.867000000     5.990000000
C    -1.970000000    -0.184000000     4.547000000
H    -2.574000000     0.671000000     4.838000000
C    -2.586000000    -1.313000000     3.967000000
C    -4.047000000    -1.242000000     3.585000000
H    -4.576000000    -0.608000000     4.298000000
H    -4.593000000    -2.185000000     3.515000000
C    -4.205000000    -0.691000000     2.229000000
C    -4.515000000     0.675000000     2.094000000
H    -4.516000000     1.356000000     2.941000000
C    -4.139000000    -1.601000000     1.170000000
C    -4.384000000    -1.131000000    -0.100000000
H    -4.370000000    -1.836000000    -0.927000000
C    -4.615000000     0.188000000    -0.295000000
O    -4.698000000     0.599000000    -1.586000000
C    -3.541000000     1.189000000    -2.174000000
C    -3.282000000     0.767000000    -3.557000000
C    -2.433000000     1.526000000    -4.413000000
H    -2.105000000     2.520000000    -4.120000000
C    -3.810000000    -0.484000000    -3.944000000
H    -4.539000000    -0.984000000    -3.311000000
O    -3.630000000     2.630000000    -2.197000000
H    -2.672000000     0.897000000    -1.566000000
C    -4.735000000     1.111000000     0.747000000
C    -4.960000000     2.527000000     0.487000000
H    -5.466000000     2.984000000     1.340000000
H    -5.650000000     2.839000000    -0.300000000
C    -3.611000000     3.234000000     0.181000000
C    -2.955000000     3.912000000     1.234000000
H    -3.384000000     3.855000000     2.231000000
C    -3.081000000     3.312000000    -1.116000000
C    -1.761000000     3.803000000    -1.314000000
H    -1.261000000     3.746000000    -2.277000000
C    -1.105000000     4.470000000    -0.274000000
O     0.184000000     4.892000000    -0.490000000
C     1.220000000     3.998000000    -0.009000000
C     2.386000000     3.964000000    -0.971000000
C     2.090000000     3.692000000    -2.319000000
H     1.052000000     3.670000000    -2.642000000
C     3.756000000     4.062000000    -0.613000000
H     3.941000000     4.261000000     0.439000000
O     1.754000000     4.540000000     1.229000000
H     1.024000000     2.941000000     0.223000000
C    -1.702000000     4.470000000     1.005000000
C    -1.044000000     5.019000000     2.216000000
H    -1.754000000     5.383000000     2.962000000
H    -0.495000000     5.867000000     1.802000000
C     0.027000000     4.063000000     2.852000000
C     1.304000000     3.887000000     2.321000000
C     2.121000000     2.871000000     2.734000000
H     2.993000000     2.767000000     2.093000000
C     1.720000000     2.007000000     3.702000000
O     2.466000000     0.918000000     4.061000000
C     2.238000000    -0.325000000     3.342000000
H     1.513000000    -0.097000000     2.546000000
C     3.484000000    -0.952000000     2.714000000
C     3.552000000    -2.342000000     2.549000000
H     2.703000000    -2.989000000     2.753000000
C     4.614000000    -0.201000000     2.475000000
H     4.600000000     0.873000000     2.643000000
C     5.746000000    -0.800000000     1.923000000
O     6.783000000    -0.010000000     1.336000000
C     5.914000000    -2.196000000     1.818000000
H     6.826000000    -2.661000000     1.454000000
C     4.748000000    -2.939000000     2.089000000
O     4.838000000    -4.312000000     2.008000000
C     3.816000000    -5.191000000     2.200000000
C     2.855000000    -5.321000000     1.163000000
H     2.823000000    -4.554000000     0.394000000
C     3.970000000    -6.158000000     3.155000000
H     4.772000000    -5.980000000     3.868000000
C     3.136000000    -7.246000000     3.215000000
H     3.101000000    -7.921000000     4.066000000
C     2.094000000    -7.288000000     2.279000000
H     1.331000000    -8.008000000     2.561000000
C     2.005000000    -6.400000000     1.211000000
O     1.097000000    -6.706000000     0.182000000
C    -0.089000000    -5.970000000    -0.035000000
C    -0.717000000    -6.168000000    -1.261000000
H    -0.249000000    -6.886000000    -1.930000000
C    -1.890000000    -5.549000000    -1.538000000
O    -2.421000000    -5.859000000    -2.739000000
C    -3.444000000    -5.152000000    -3.350000000
C    -3.170000000    -4.134000000    -4.219000000
H    -2.127000000    -3.861000000    -4.357000000
C    -4.740000000    -5.557000000    -3.158000000
H    -5.022000000    -6.382000000    -2.509000000
C    -5.762000000    -4.843000000    -3.861000000
H    -6.810000000    -5.117000000    -3.761000000
C    -5.493000000    -3.798000000    -4.752000000
H    -6.197000000    -3.182000000    -5.305000000
C    -4.159000000    -3.335000000    -4.886000000
O    -3.892000000    -2.242000000    -5.627000000
C    -3.360000000    -1.047000000    -5.146000000
C    -2.566000000    -0.240000000    -6.000000000
H    -2.386000000    -0.515000000    -7.037000000
C    -2.043000000     0.981000000    -5.648000000
O    -1.230000000     1.623000000    -6.481000000
C    -0.423000000     2.690000000    -6.152000000
C     0.837000000     2.499000000    -5.706000000
H     1.279000000     1.515000000    -5.579000000
C    -0.931000000     3.977000000    -6.086000000
H    -1.961000000     4.062000000    -6.424000000
C    -0.126000000     5.093000000    -5.890000000
H    -0.647000000     6.033000000    -6.055000000
C     1.165000000     4.873000000    -5.382000000
H     1.746000000     5.711000000    -5.005000000
C     1.595000000     3.549000000    -5.231000000
O     2.808000000     3.317000000    -4.579000000
C     3.114000000     3.489000000    -3.270000000
C     4.445000000     3.692000000    -2.897000000
H     5.270000000     3.629000000    -3.602000000
C     4.825000000     3.929000000    -1.534000000
O     6.162000000     4.032000000    -1.081000000
C     6.477000000     3.380000000     0.071000000
C     6.720000000     4.129000000     1.294000000
H     6.688000000     5.215000000     1.305000000
C     6.995000000     3.425000000     2.456000000
H     7.222000000     4.064000000     3.306000000
C     6.981000000     2.034000000     2.458000000
H     7.159000000     1.416000000     3.334000000
C     6.625000000     1.362000000     1.289000000
C     6.437000000     2.003000000     0.115000000
H     6.418000000     1.450000000    -0.822000000
C     1.693000000    -0.153000000    -2.595000000
H     1.953000000     0.169000000    -3.600000000
C     0.618000000     0.466000000    -1.898000000
H     0.040000000     1.194000000    -2.463000000
C     0.356000000     0.166000000    -0.531000000
H    -0.542000000     0.634000000    -0.044000000
C     1.130000000    -0.838000000     0.075000000
H     0.860000000    -1.150000000     1.081000000
C     2.171000000    -1.500000000    -0.618000000
H     2.598000000    -2.349000000    -0.090000000
C     2.444000000    -1.168000000    -1.946000000
C     3.522000000    -1.810000000    -2.739000000
O     4.038000000    -2.814000000    -2.350000000
O     3.940000000    -1.348000000    -3.780000000
O     3.027000000    -4.452000000    -8.241000000
H     2.772000000    -4.056000000    -9.074000000
H     3.278000000    -3.710000000    -7.690000000
O     3.996000000    -4.430000000    -4.515000000
H     4.171000000    -4.940000000    -3.724000000
H     3.911000000    -3.528000000    -4.205000000
O     6.736000000    -5.175000000    -3.888000000
H     6.207000000    -4.597000000    -4.438000000
H     6.731000000    -4.756000000    -3.027000000
O     0.337000000    -2.512000000    -3.521000000
H     0.226000000    -2.134000000    -4.393000000
H     0.037000000    -1.826000000    -2.923000000
O     5.873000000     1.226000000    -3.372000000
H     6.642000000     0.972000000    -2.862000000
H     5.376000000     0.415000000    -3.477000000
O     2.831000000    -7.159000000    -4.029000000
H     2.376000000    -6.771000000    -3.281000000
H     3.393000000    -6.457000000    -4.358000000
O     0.589000000    -1.431000000    -6.031000000
H     0.401000000    -1.082000000    -6.902000000
H     1.545000000    -1.421000000    -5.971000000
O     6.034000000    -3.705000000    -6.993000000
H     6.048000000    -3.439000000    -7.913000000
H     6.482000000    -4.551000000    -6.982000000
O     4.233000000    -6.819000000    -1.210000000
H     4.114000000    -7.692000000    -1.583000000
H     3.405000000    -6.371000000    -1.381000000
O     6.427000000     2.541000000    -5.496000000
H     5.983000000     3.380000000    -5.622000000
H     6.161000000     2.258000000    -4.621000000
O     6.084000000     0.181000000    -7.078000000
H     6.209000000    -0.541000000    -6.462000000
H     6.251000000     0.969000000    -6.561000000
O     2.492000000    -4.795000000    -2.162000000
H     1.652000000    -4.344000000    -2.247000000
H     3.133000000    -4.091000000    -2.060000000
O     8.799000000    -0.620000000    -4.877000000
H     8.912000000    -0.878000000    -3.963000000
H     8.183000000    -1.262000000    -5.232000000
O     6.718000000    -5.692000000    -0.807000000
H     5.889000000    -6.162000000    -0.716000000
H     7.174000000    -5.848000000     0.021000000
O     9.012000000    -1.944000000    -2.540000000
H     8.235000000    -2.469000000    -2.346000000
H     9.427000000    -1.807000000    -1.689000000
O     4.309000000    -6.368000000    -6.601000000
H     4.244000000    -5.927000000    -5.754000000
H     4.060000000    -5.698000000    -7.239000000
O     6.363000000    -1.988000000    -5.055000000
H     5.912000000    -2.559000000    -5.677000000
H     5.694000000    -1.763000000    -4.408000000
O     6.667000000    -3.157000000    -1.684000000
H     6.666000000    -3.880000000    -1.056000000
H     5.742000000    -3.018000000    -1.889000000
O     3.379000000    -0.691000000    -6.367000000
H     3.645000000    -0.757000000    -5.450000000
H     4.036000000    -0.121000000    -6.766000000
