215
-1470.62962
C    -2.614000000    -4.414000000     0.347000000
H    -3.527000000    -3.840000000     0.215000000
C    -1.711000000    -4.191000000     1.412000000
C    -0.497000000    -4.885000000     1.481000000
H     0.093000000    -4.694000000     2.373000000
C    -1.895000000    -2.939000000     2.197000000
O    -3.296000000    -2.623000000     2.399000000
H    -1.272000000    -2.179000000     1.704000000
O    -1.371000000    -3.075000000     3.511000000
C    -0.763000000    -1.923000000     4.093000000
C     0.659000000    -1.884000000     4.078000000
H     1.117000000    -2.789000000     3.687000000
C     1.409000000    -0.740000000     4.408000000
O     2.735000000    -0.790000000     4.157000000
C     0.717000000     0.415000000     4.869000000
C     1.450000000     1.679000000     5.271000000
H     0.830000000     2.229000000     5.983000000
C     1.676000000     2.400000000     3.940000000
C     0.844000000     3.480000000     3.585000000
H     0.010000000     3.696000000     4.247000000
H     2.410000000     1.506000000     5.762000000
C    -0.721000000     0.309000000     4.949000000
H    -1.244000000     1.166000000     5.368000000
C    -1.407000000    -0.830000000     4.562000000
C    -2.948000000    -0.853000000     4.659000000
H    -3.164000000    -0.257000000     5.549000000
H    -3.281000000    -1.870000000     4.873000000
C    -3.530000000    -0.377000000     3.351000000
C    -3.878000000     0.981000000     3.062000000
H    -3.638000000     1.818000000     3.714000000
C    -3.731000000    -1.303000000     2.297000000
C    -4.305000000    -0.993000000     1.091000000
H    -4.421000000    -1.814000000     0.388000000
C    -4.485000000     0.327000000     0.791000000
O    -4.812000000     0.628000000    -0.539000000
C    -3.790000000     1.257000000    -1.380000000
C    -3.905000000     0.733000000    -2.789000000
C    -3.510000000     1.518000000    -3.857000000
H    -3.284000000     2.579000000    -3.781000000
C    -4.327000000    -0.587000000    -3.064000000
H    -4.658000000    -1.236000000    -2.257000000
O    -4.073000000     2.650000000    -1.289000000
H    -2.763000000     1.164000000    -0.998000000
C    -4.347000000     1.349000000     1.757000000
C    -4.604000000     2.827000000     1.487000000
H    -5.076000000     3.313000000     2.343000000
H    -5.396000000     2.950000000     0.746000000
C    -3.390000000     3.494000000     0.927000000
C    -2.405000000     4.061000000     1.757000000
H    -2.678000000     4.092000000     2.809000000
C    -3.219000000     3.374000000    -0.459000000
C    -2.025000000     3.857000000    -1.005000000
H    -1.804000000     3.652000000    -2.050000000
C    -1.094000000     4.574000000    -0.243000000
O     0.106000000     4.914000000    -0.886000000
C     1.286000000     4.071000000    -0.764000000
C     2.082000000     3.821000000    -2.127000000
C     1.492000000     4.009000000    -3.369000000
H     0.504000000     4.458000000    -3.434000000
C     3.329000000     3.119000000    -2.013000000
H     3.713000000     2.814000000    -1.043000000
O     2.152000000     4.533000000     0.284000000
H     0.930000000     3.071000000    -0.477000000
C    -1.220000000     4.631000000     1.184000000
C    -0.213000000     5.212000000     2.109000000
H    -0.733000000     5.399000000     3.051000000
H     0.137000000     6.193000000     1.779000000
C     0.876000000     4.155000000     2.369000000
C     1.966000000     3.919000000     1.512000000
C     2.870000000     2.888000000     1.817000000
H     3.744000000     2.790000000     1.178000000
C     2.709000000     2.142000000     3.008000000
O     3.608000000     1.173000000     3.150000000
C     3.239000000    -0.178000000     2.932000000
H     2.478000000    -0.069000000     2.146000000
C     4.370000000    -1.097000000     2.308000000
C     4.229000000    -2.483000000     2.479000000
H     3.450000000    -2.881000000     3.124000000
C     5.344000000    -0.543000000     1.506000000
H     5.313000000     0.520000000     1.280000000
C     6.179000000    -1.406000000     0.856000000
O     7.212000000    -0.883000000     0.180000000
C     6.239000000    -2.768000000     1.182000000
H     7.031000000    -3.337000000     0.704000000
C     5.151000000    -3.348000000     1.925000000
O     5.097000000    -4.664000000     2.123000000
C     3.889000000    -5.319000000     2.334000000
C     2.977000000    -5.460000000     1.282000000
H     3.107000000    -4.946000000     0.334000000
C     3.892000000    -6.188000000     3.383000000
H     4.614000000    -6.034000000     4.181000000
C     2.811000000    -7.055000000     3.524000000
H     2.799000000    -7.684000000     4.411000000
C     1.804000000    -7.132000000     2.583000000
H     1.035000000    -7.894000000     2.680000000
C     1.882000000    -6.329000000     1.477000000
O     1.037000000    -6.403000000     0.372000000
C    -0.185000000    -5.867000000     0.534000000
C    -1.160000000    -6.096000000    -0.483000000
H    -1.029000000    -6.810000000    -1.292000000
C    -2.339000000    -5.450000000    -0.517000000
O    -3.150000000    -5.754000000    -1.580000000
C    -4.234000000    -4.906000000    -2.023000000
C    -3.980000000    -4.087000000    -3.101000000
H    -2.962000000    -3.971000000    -3.464000000
C    -5.503000000    -5.094000000    -1.538000000
H    -5.637000000    -5.841000000    -0.760000000
C    -6.561000000    -4.349000000    -2.102000000
H    -7.589000000    -4.414000000    -1.754000000
C    -6.297000000    -3.396000000    -3.123000000
H    -7.130000000    -2.834000000    -3.537000000
C    -4.983000000    -3.269000000    -3.614000000
O    -4.670000000    -2.381000000    -4.655000000
C    -4.296000000    -1.125000000    -4.403000000
C    -3.752000000    -0.312000000    -5.441000000
H    -3.722000000    -0.697000000    -6.457000000
C    -3.378000000     1.025000000    -5.177000000
O    -2.968000000     1.815000000    -6.284000000
C    -2.169000000     2.923000000    -6.164000000
C    -0.802000000     2.741000000    -5.949000000
H    -0.426000000     1.732000000    -5.799000000
C    -2.656000000     4.252000000    -6.403000000
H    -3.710000000     4.461000000    -6.561000000
C    -1.759000000     5.340000000    -6.309000000
H    -2.140000000     6.328000000    -6.553000000
C    -0.464000000     5.161000000    -5.863000000
H     0.258000000     5.973000000    -5.847000000
C     0.043000000     3.851000000    -5.898000000
O     1.454000000     3.670000000    -5.748000000
C     2.123000000     3.565000000    -4.525000000
C     3.308000000     2.774000000    -4.386000000
H     3.787000000     2.335000000    -5.257000000
C     3.859000000     2.524000000    -3.107000000
O     4.933000000     1.686000000    -3.136000000
C     5.969000000     1.659000000    -2.216000000
C     6.680000000     2.788000000    -1.838000000
H     6.440000000     3.792000000    -2.182000000
C     7.699000000     2.655000000    -0.839000000
H     8.240000000     3.490000000    -0.402000000
C     7.895000000     1.444000000    -0.236000000
H     8.434000000     1.476000000     0.707000000
C     7.087000000     0.355000000    -0.498000000
C     6.186000000     0.463000000    -1.565000000
H     5.589000000    -0.403000000    -1.839000000
C    -0.704000000    -0.879000000    -2.570000000
H    -1.462000000    -1.360000000    -3.183000000
C    -0.904000000    -0.633000000    -1.236000000
H    -1.900000000    -0.894000000    -0.886000000
C     0.055000000    -0.046000000    -0.400000000
H    -0.153000000     0.106000000     0.716000000
C     1.276000000     0.161000000    -0.926000000
H     2.049000000     0.685000000    -0.369000000
C     1.501000000    -0.018000000    -2.289000000
H     2.434000000     0.345000000    -2.712000000
C     0.524000000    -0.549000000    -3.120000000
C     0.824000000    -0.752000000    -4.636000000
O     1.954000000    -1.095000000    -4.929000000
O    -0.034000000    -0.707000000    -5.470000000
O    -2.102000000    -0.580000000    -9.111000000
H    -1.330000000    -0.113000000    -8.793000000
H    -2.604000000     0.083000000    -9.585000000
O    -1.179000000     2.317000000    -9.595000000
H    -0.307000000     2.271000000    -9.987000000
H    -1.028000000     2.182000000    -8.659000000
O    -2.958000000    -4.159000000    -7.398000000
H    -2.034000000    -4.015000000    -7.601000000
H    -3.429000000    -3.594000000    -8.010000000
O     5.123000000    -1.844000000    -5.190000000
H     5.721000000    -1.842000000    -4.443000000
H     4.271000000    -1.622000000    -4.815000000
O     1.992000000     3.085000000    -8.465000000
H     2.179000000     2.971000000    -7.533000000
H     2.585000000     2.475000000    -8.904000000
O     5.166000000    -4.962000000    -5.499000000
H     4.574000000    -4.810000000    -6.237000000
H     4.873000000    -4.346000000    -4.827000000
O     1.301000000    -2.868000000    -0.676000000
H     0.956000000    -1.983000000    -0.795000000
H     0.613000000    -3.441000000    -1.013000000
O     0.112000000    -5.800000000    -8.601000000
H     0.104000000    -5.295000000    -7.788000000
H     0.922000000    -5.537000000    -9.038000000
O    -0.210000000    -3.591000000    -5.855000000
H    -0.209000000    -3.376000000    -6.787000000
H    -0.510000000    -2.791000000    -5.424000000
O     3.499000000    -4.754000000    -7.416000000
H     3.851000000    -4.451000000    -8.253000000
H     3.353000000    -5.691000000    -7.542000000
O     6.389000000    -1.394000000    -7.424000000
H     5.735000000    -1.503000000    -6.733000000
H     6.969000000    -2.149000000    -7.326000000
O     2.845000000     0.438000000    -7.035000000
H     2.625000000    -0.003000000    -6.215000000
H     2.946000000    -0.271000000    -7.670000000
O     2.718000000    -3.464000000    -4.314000000
H     2.417000000    -2.621000000    -4.653000000
H     2.116000000    -4.103000000    -4.695000000
O     3.466000000    -5.829000000    -2.245000000
H     2.623000000    -6.047000000    -2.643000000
H     3.834000000    -5.156000000    -2.816000000
O    -1.610000000    -5.721000000    -4.673000000
H    -1.216000000    -5.872000000    -3.813000000
H    -1.199000000    -4.916000000    -4.986000000
O     3.922000000    -2.487000000    -1.855000000
H     3.437000000    -2.689000000    -2.655000000
H     3.373000000    -2.828000000    -1.149000000
O    -0.561000000    -2.698000000    -8.464000000
H     0.297000000    -2.318000000    -8.275000000
H    -1.161000000    -1.953000000    -8.453000000
O     2.020000000    -2.378000000    -7.497000000
H     2.656000000    -3.083000000    -7.375000000
H     1.933000000    -1.982000000    -6.630000000
O     0.188000000     0.417000000    -7.925000000
H     0.074000000     0.010000000    -7.066000000
H     0.909000000     1.034000000    -7.804000000
