215
-1452.82305
C    -2.572000000    -4.122000000     2.100000000
H    -3.582000000    -3.790000000     2.323000000
C    -1.504000000    -3.452000000     2.667000000
C    -0.236000000    -4.072000000     2.638000000
H     0.630000000    -3.541000000     3.025000000
C    -1.668000000    -2.093000000     3.235000000
O    -3.019000000    -1.740000000     3.413000000
H    -1.225000000    -1.456000000     2.455000000
O    -0.953000000    -1.824000000     4.390000000
C    -0.231000000    -0.610000000     4.630000000
C     1.115000000    -0.726000000     4.465000000
H     1.576000000    -1.694000000     4.281000000
C     1.807000000     0.457000000     4.399000000
O     3.114000000     0.440000000     3.955000000
C     1.223000000     1.730000000     4.594000000
C     2.007000000     3.025000000     4.398000000
H     1.425000000     3.735000000     4.988000000
C     2.099000000     3.358000000     2.903000000
C     1.238000000     4.293000000     2.395000000
H     0.403000000     4.697000000     2.961000000
H     2.999000000     2.821000000     4.807000000
C    -0.152000000     1.778000000     4.846000000
H    -0.675000000     2.722000000     4.976000000
C    -0.900000000     0.622000000     4.861000000
C    -2.430000000     0.635000000     5.039000000
H    -2.687000000     1.540000000     5.594000000
H    -2.698000000    -0.271000000     5.587000000
C    -3.099000000     0.585000000     3.666000000
C    -3.521000000     1.770000000     3.094000000
H    -3.401000000     2.656000000     3.712000000
C    -3.397000000    -0.552000000     2.915000000
C    -3.913000000    -0.419000000     1.680000000
H    -4.031000000    -1.271000000     1.016000000
C    -4.341000000     0.745000000     1.121000000
O    -4.864000000     0.788000000    -0.187000000
C    -4.002000000     1.121000000    -1.294000000
C    -4.171000000     0.235000000    -2.524000000
C    -3.840000000     0.641000000    -3.833000000
H    -3.442000000     1.605000000    -4.139000000
C    -4.463000000    -1.106000000    -2.240000000
H    -4.740000000    -1.424000000    -1.238000000
O    -4.210000000     2.508000000    -1.636000000
H    -2.992000000     0.993000000    -0.877000000
C    -4.066000000     1.884000000     1.800000000
C    -4.366000000     3.197000000     1.177000000
H    -4.482000000     4.000000000     1.907000000
H    -5.234000000     3.197000000     0.514000000
C    -3.262000000     3.755000000     0.200000000
C    -2.178000000     4.389000000     0.816000000
H    -2.237000000     4.724000000     1.848000000
C    -3.277000000     3.384000000    -1.146000000
C    -2.198000000     3.789000000    -1.933000000
H    -2.237000000     3.658000000    -3.012000000
C    -1.088000000     4.414000000    -1.390000000
O    -0.026000000     4.571000000    -2.235000000
C     1.220000000     3.801000000    -1.939000000
C     1.786000000     3.081000000    -3.146000000
C     0.979000000     2.491000000    -4.116000000
H    -0.101000000     2.612000000    -4.134000000
C     3.165000000     2.755000000    -3.137000000
H     3.794000000     3.144000000    -2.341000000
O     2.239000000     4.433000000    -1.155000000
H     0.839000000     2.968000000    -1.329000000
C    -1.091000000     4.754000000    -0.020000000
C     0.088000000     5.553000000     0.529000000
H    -0.384000000     6.097000000     1.349000000
H     0.373000000     6.271000000    -0.243000000
C     1.229000000     4.756000000     1.003000000
C     2.237000000     4.188000000     0.190000000
C     3.245000000     3.301000000     0.693000000
H     4.004000000     2.864000000     0.049000000
C     3.108000000     2.874000000     2.020000000
O     3.959000000     1.912000000     2.412000000
C     3.285000000     0.563000000     2.570000000
H     2.389000000     0.462000000     1.939000000
C     4.205000000    -0.557000000     2.109000000
C     4.416000000    -1.695000000     2.884000000
H     4.076000000    -1.774000000     3.913000000
C     4.670000000    -0.484000000     0.826000000
H     4.328000000     0.393000000     0.282000000
C     5.516000000    -1.516000000     0.314000000
O     6.032000000    -1.597000000    -0.916000000
C     5.778000000    -2.629000000     1.141000000
H     6.301000000    -3.481000000     0.714000000
C     5.216000000    -2.718000000     2.378000000
O     5.386000000    -3.865000000     3.130000000
C     4.370000000    -4.794000000     3.157000000
C     3.235000000    -4.870000000     2.324000000
H     3.243000000    -4.261000000     1.424000000
C     4.478000000    -5.650000000     4.254000000
H     5.341000000    -5.559000000     4.908000000
C     3.457000000    -6.597000000     4.489000000
H     3.506000000    -7.296000000     5.321000000
C     2.345000000    -6.697000000     3.664000000
H     1.607000000    -7.490000000     3.747000000
C     2.201000000    -5.761000000     2.622000000
O     1.097000000    -5.799000000     1.763000000
C    -0.072000000    -5.252000000     1.900000000
C    -1.164000000    -5.821000000     1.216000000
H    -1.046000000    -6.720000000     0.615000000
C    -2.401000000    -5.168000000     1.250000000
O    -3.452000000    -5.767000000     0.657000000
C    -4.472000000    -5.106000000    -0.085000000
C    -4.282000000    -4.442000000    -1.332000000
H    -3.360000000    -4.528000000    -1.900000000
C    -5.710000000    -5.179000000     0.527000000
H    -5.912000000    -5.728000000     1.443000000
C    -6.696000000    -4.329000000     0.044000000
H    -7.636000000    -4.193000000     0.572000000
C    -6.555000000    -3.754000000    -1.228000000
H    -7.366000000    -3.177000000    -1.665000000
C    -5.372000000    -3.821000000    -1.899000000
O    -5.177000000    -3.168000000    -3.090000000
C    -4.591000000    -1.993000000    -3.298000000
C    -4.433000000    -1.570000000    -4.597000000
H    -4.725000000    -2.152000000    -5.468000000
C    -3.924000000    -0.288000000    -4.856000000
O    -3.739000000     0.132000000    -6.141000000
C    -2.787000000     1.028000000    -6.508000000
C    -1.414000000     0.827000000    -6.182000000
H    -1.074000000    -0.063000000    -5.660000000
C    -3.094000000     2.246000000    -7.230000000
H    -4.137000000     2.512000000    -7.386000000
C    -2.076000000     3.077000000    -7.762000000
H    -2.247000000     3.859000000    -8.497000000
C    -0.786000000     2.884000000    -7.406000000
H     0.014000000     3.531000000    -7.757000000
C    -0.442000000     1.718000000    -6.641000000
O     0.909000000     1.413000000    -6.323000000
C     1.579000000     1.821000000    -5.206000000
C     2.919000000     1.547000000    -5.201000000
H     3.300000000     1.007000000    -6.064000000
C     3.742000000     1.979000000    -4.153000000
O     5.129000000     1.819000000    -4.252000000
C     5.883000000     1.282000000    -3.215000000
C     6.850000000     2.106000000    -2.677000000
H     6.929000000     3.114000000    -3.075000000
C     7.495000000     1.707000000    -1.526000000
H     8.308000000     2.339000000    -1.177000000
C     7.285000000     0.485000000    -0.919000000
H     7.840000000     0.235000000    -0.018000000
C     6.299000000    -0.355000000    -1.475000000
C     5.590000000     0.001000000    -2.644000000
H     4.846000000    -0.649000000    -3.098000000
C    -0.217000000    -1.904000000    -2.598000000
H    -0.678000000    -2.681000000    -3.202000000
C    -0.952000000    -1.308000000    -1.548000000
H    -1.976000000    -1.619000000    -1.355000000
C    -0.354000000    -0.333000000    -0.735000000
H    -0.978000000     0.155000000     0.088000000
C     0.946000000    -0.027000000    -0.878000000
H     1.396000000     0.618000000    -0.128000000
C     1.675000000    -0.540000000    -2.002000000
H     2.661000000    -0.100000000    -2.127000000
C     1.114000000    -1.524000000    -2.841000000
C     1.977000000    -2.250000000    -3.922000000
O     3.183000000    -2.102000000    -3.972000000
O     1.499000000    -3.128000000    -4.663000000
O     4.696000000    -1.544000000    -6.067000000
H     4.434000000    -2.258000000    -6.647000000
H     4.117000000    -1.626000000    -5.309000000
O     2.304000000    -7.011000000    -0.950000000
H     2.335000000    -6.471000000    -0.161000000
H     2.255000000    -6.381000000    -1.670000000
O     1.399000000    -3.848000000    -0.323000000
H     1.027000000    -2.968000000    -0.384000000
H     0.965000000    -4.240000000     0.435000000
O    -1.182000000    -6.437000000    -3.251000000
H    -0.275000000    -6.166000000    -3.111000000
H    -1.289000000    -7.211000000    -2.698000000
O     0.881000000    -6.791000000    -7.502000000
H     1.542000000    -6.683000000    -8.186000000
H     0.919000000    -5.976000000    -7.002000000
O     1.293000000    -5.346000000    -2.773000000
H     1.535000000    -4.759000000    -3.490000000
H     1.217000000    -4.773000000    -2.010000000
O     3.074000000    -3.801000000    -8.938000000
H     3.746000000    -3.210000000    -9.279000000
H     2.307000000    -3.243000000    -8.810000000
O    -0.143000000    -4.568000000    -6.155000000
H    -0.454000000    -3.859000000    -6.717000000
H     0.477000000    -4.147000000    -5.559000000
O     6.705000000     0.482000000    -6.673000000
H     6.140000000    -0.136000000    -6.210000000
H     6.233000000     1.314000000    -6.634000000
O     5.768000000    -4.411000000    -7.458000000
H     4.832000000    -4.568000000    -7.332000000
H     6.099000000    -4.222000000    -6.580000000
O     5.528000000    -5.834000000    -1.308000000
H     6.442000000    -5.790000000    -1.592000000
H     5.085000000    -5.159000000    -1.822000000
O     1.910000000     0.495000000    -9.098000000
H     1.794000000     1.192000000    -8.452000000
H     1.832000000    -0.314000000    -8.593000000
O     5.079000000    -3.852000000    -3.027000000
H     4.417000000    -3.279000000    -3.415000000
H     5.830000000    -3.280000000    -2.872000000
O     4.764000000    -6.157000000    -4.830000000
H     5.427000000    -6.701000000    -5.256000000
H     5.207000000    -5.799000000    -4.061000000
O    -2.513000000    -5.902000000    -5.588000000
H    -1.742000000    -5.474000000    -5.959000000
H    -2.273000000    -6.082000000    -4.679000000
O     7.278000000    -3.976000000    -5.310000000
H     7.266000000    -4.487000000    -4.501000000
H     6.929000000    -3.121000000    -5.058000000
O    -0.952000000    -2.342000000    -7.743000000
H    -1.247000000    -3.101000000    -8.247000000
H    -1.477000000    -1.615000000    -8.076000000
O     3.472000000    -4.248000000    -6.037000000
H     3.954000000    -4.929000000    -5.568000000
H     2.797000000    -3.964000000    -5.420000000
O     1.969000000    -1.575000000    -7.416000000
H     2.432000000    -2.007000000    -6.698000000
H     1.045000000    -1.768000000    -7.257000000
