215
-1454.71135
C     3.141000000     2.501000000    -4.142000000
H     3.601000000     1.632000000    -4.607000000
C     3.144000000     2.690000000    -2.756000000
C     2.520000000     3.765000000    -2.143000000
H     2.516000000     3.969000000    -1.075000000
C     3.861000000     1.699000000    -1.898000000
O     4.431000000     0.591000000    -2.620000000
H     3.057000000     1.218000000    -1.322000000
O     4.719000000     2.267000000    -0.884000000
C     4.543000000     1.653000000     0.354000000
C     3.770000000     2.288000000     1.286000000
H     3.335000000     3.255000000     1.045000000
C     3.464000000     1.676000000     2.501000000
O     2.684000000     2.420000000     3.378000000
C     3.989000000     0.479000000     2.864000000
C     3.499000000    -0.254000000     4.177000000
H     4.184000000    -1.079000000     4.386000000
C     2.188000000    -0.928000000     4.105000000
C     2.030000000    -2.279000000     3.861000000
H     2.937000000    -2.858000000     3.710000000
H     3.509000000     0.483000000     4.983000000
C     4.790000000    -0.145000000     1.946000000
H     5.072000000    -1.178000000     2.137000000
C     5.133000000     0.416000000     0.683000000
C     5.795000000    -0.401000000    -0.424000000
H     6.424000000    -1.084000000     0.152000000
H     6.487000000     0.194000000    -1.025000000
C     4.723000000    -1.199000000    -1.185000000
C     4.272000000    -2.492000000    -0.775000000
H     4.667000000    -3.020000000     0.089000000
C     4.138000000    -0.635000000    -2.284000000
C     3.198000000    -1.301000000    -3.038000000
H     2.745000000    -0.838000000    -3.911000000
C     2.736000000    -2.544000000    -2.621000000
O     1.714000000    -2.982000000    -3.338000000
C     0.402000000    -2.961000000    -2.749000000
C    -0.696000000    -2.584000000    -3.665000000
C    -2.005000000    -3.021000000    -3.410000000
H    -2.166000000    -3.799000000    -2.668000000
C    -0.596000000    -1.523000000    -4.499000000
H     0.391000000    -1.073000000    -4.577000000
O     0.111000000    -4.309000000    -2.120000000
H     0.334000000    -2.272000000    -1.894000000
C     3.243000000    -3.158000000    -1.496000000
C     2.787000000    -4.549000000    -1.031000000
H     3.576000000    -5.065000000    -0.480000000
H     2.625000000    -5.049000000    -1.988000000
C     1.564000000    -4.484000000    -0.207000000
C     1.580000000    -4.464000000     1.192000000
H     2.549000000    -4.437000000     1.683000000
C     0.304000000    -4.457000000    -0.789000000
C    -0.914000000    -4.510000000    -0.021000000
H    -1.861000000    -4.507000000    -0.556000000
C    -0.815000000    -4.431000000     1.343000000
O    -1.954000000    -4.177000000     2.099000000
C    -2.146000000    -2.804000000     2.658000000
C    -3.575000000    -2.425000000     2.602000000
C    -4.374000000    -2.931000000     1.490000000
H    -4.017000000    -3.517000000     0.647000000
C    -4.135000000    -1.529000000     3.507000000
H    -3.456000000    -1.138000000     4.261000000
O    -1.595000000    -2.679000000     4.001000000
H    -1.582000000    -2.021000000     2.131000000
C     0.385000000    -4.386000000     1.968000000
C     0.627000000    -4.309000000     3.487000000
H     1.515000000    -4.889000000     3.748000000
H    -0.246000000    -4.769000000     3.954000000
C     0.809000000    -2.877000000     3.912000000
C    -0.319000000    -2.109000000     4.083000000
C    -0.266000000    -0.763000000     4.387000000
H    -1.187000000    -0.211000000     4.556000000
C     1.002000000    -0.145000000     4.356000000
O     1.080000000     1.234000000     4.556000000
C     1.352000000     2.043000000     3.440000000
H     1.099000000     1.470000000     2.536000000
C     0.370000000     3.249000000     3.459000000
C     0.703000000     4.450000000     2.819000000
H     1.700000000     4.463000000     2.387000000
C    -0.922000000     3.061000000     3.939000000
H    -1.315000000     2.079000000     4.188000000
C    -1.862000000     4.072000000     3.764000000
O    -3.251000000     3.854000000     3.889000000
C    -1.484000000     5.327000000     3.217000000
H    -2.124000000     6.198000000     3.104000000
C    -0.213000000     5.522000000     2.721000000
O     0.123000000     6.705000000     2.072000000
C     0.910000000     6.756000000     0.943000000
C     0.510000000     6.023000000    -0.150000000
H    -0.393000000     5.424000000    -0.237000000
C     2.069000000     7.618000000     0.955000000
H     2.218000000     8.240000000     1.835000000
C     2.854000000     7.781000000    -0.189000000
H     3.692000000     8.468000000    -0.278000000
C     2.472000000     7.027000000    -1.283000000
H     3.032000000     7.076000000    -2.214000000
C     1.347000000     6.214000000    -1.248000000
O     1.023000000     5.595000000    -2.404000000
C     1.748000000     4.563000000    -2.933000000
C     1.644000000     4.307000000    -4.321000000
H     0.979000000     4.934000000    -4.909000000
C     2.364000000     3.293000000    -4.955000000
O     2.212000000     2.950000000    -6.235000000
C     1.515000000     1.853000000    -6.637000000
C     0.298000000     1.495000000    -6.066000000
H    -0.146000000     2.050000000    -5.244000000
C     2.010000000     1.144000000    -7.702000000
H     2.953000000     1.399000000    -8.180000000
C     1.405000000    -0.031000000    -8.114000000
H     1.887000000    -0.509000000    -8.963000000
C     0.135000000    -0.340000000    -7.594000000
H    -0.416000000    -1.205000000    -7.954000000
C    -0.384000000     0.396000000    -6.524000000
O    -1.605000000     0.028000000    -6.070000000
C    -1.696000000    -1.056000000    -5.216000000
C    -2.964000000    -1.546000000    -4.978000000
H    -3.796000000    -0.926000000    -5.299000000
C    -3.103000000    -2.554000000    -4.074000000
O    -4.363000000    -3.113000000    -3.964000000
C    -4.711000000    -3.757000000    -2.795000000
C    -5.333000000    -3.054000000    -1.740000000
H    -5.199000000    -1.976000000    -1.777000000
C    -4.736000000    -5.114000000    -2.732000000
H    -4.260000000    -5.752000000    -3.472000000
C    -5.482000000    -5.758000000    -1.777000000
H    -5.582000000    -6.840000000    -1.815000000
C    -6.054000000    -5.072000000    -0.661000000
H    -6.500000000    -5.578000000     0.191000000
C    -5.960000000    -3.720000000    -0.687000000
O    -6.476000000    -2.942000000     0.341000000
C    -5.647000000    -2.409000000     1.282000000
C    -6.101000000    -1.455000000     2.160000000
H    -7.128000000    -1.124000000     2.025000000
C    -5.368000000    -1.009000000     3.275000000
O    -5.879000000    -0.086000000     4.146000000
C    -5.194000000     0.917000000     4.808000000
C    -5.017000000     0.881000000     6.185000000
H    -5.575000000     0.115000000     6.718000000
C    -4.230000000     1.805000000     6.857000000
H    -4.080000000     1.816000000     7.933000000
C    -3.725000000     2.876000000     6.047000000
H    -3.147000000     3.703000000     6.454000000
C    -3.857000000     2.894000000     4.654000000
C    -4.612000000     1.961000000     4.055000000
H    -4.707000000     1.896000000     2.974000000
C    -2.930000000     0.463000000    -0.087000000
H    -3.838000000    -0.073000000    -0.351000000
C    -1.781000000    -0.281000000    -0.071000000
H    -1.887000000    -1.323000000    -0.362000000
C    -0.591000000     0.302000000     0.290000000
H     0.366000000    -0.271000000     0.209000000
C    -0.560000000     1.673000000     0.602000000
H     0.305000000     2.302000000     0.794000000
C    -1.724000000     2.369000000     0.599000000
H    -1.694000000     3.437000000     0.800000000
C    -2.910000000     1.788000000     0.328000000
C    -4.115000000     2.737000000     0.257000000
O    -4.068000000     3.889000000     0.566000000
O    -5.187000000     2.250000000    -0.089000000
O    -9.353000000     4.819000000     0.374000000
H    -8.414000000     4.992000000     0.306000000
H    -9.450000000     3.910000000     0.090000000
O    -2.099000000     3.142000000    -3.430000000
H    -2.771000000     2.818000000    -4.030000000
H    -1.586000000     2.367000000    -3.203000000
O    -4.752000000     2.849000000    -4.723000000
H    -4.730000000     3.434000000    -3.966000000
H    -5.572000000     2.365000000    -4.628000000
O    -7.057000000     0.764000000    -4.263000000
H    -6.979000000     0.166000000    -5.007000000
H    -7.234000000     1.617000000    -4.659000000
O    -9.146000000    -0.640000000     0.048000000
H    -9.322000000    -1.140000000    -0.749000000
H    -8.333000000    -0.170000000    -0.138000000
O    -8.780000000     2.394000000    -1.816000000
H    -8.021000000     2.817000000    -2.217000000
H    -8.569000000     1.460000000    -1.830000000
O    -7.383000000     1.930000000     1.499000000
H    -8.045000000     1.798000000     0.820000000
H    -6.575000000     2.101000000     1.015000000
O    -8.381000000     0.813000000     4.360000000
H    -8.486000000     1.399000000     3.610000000
H    -7.478000000     0.502000000     4.296000000
O    -6.669000000     5.247000000     0.564000000
H    -6.254000000     5.862000000    -0.041000000
H    -6.223000000     4.415000000     0.403000000
O    -4.918000000     5.668000000    -3.612000000
H    -3.969000000     5.713000000    -3.729000000
H    -5.264000000     6.335000000    -4.206000000
O    -6.307000000     3.569000000    -2.349000000
H    -5.728000000     3.468000000    -1.594000000
H    -6.112000000     4.444000000    -2.685000000
O    -3.598000000     8.087000000     2.744000000
H    -4.415000000     8.559000000     2.588000000
H    -3.874000000     7.239000000     3.094000000
O    -2.802000000     6.121000000     0.015000000
H    -3.133000000     5.232000000     0.142000000
H    -3.408000000     6.674000000     0.509000000
O    -2.289000000     5.765000000    -3.051000000
H    -2.489000000     5.949000000    -2.133000000
H    -2.021000000     4.846000000    -3.057000000
O    -4.962000000     5.737000000     2.713000000
H    -4.565000000     4.892000000     2.499000000
H    -5.662000000     5.842000000     2.070000000
O    -6.709000000     0.481000000    -1.223000000
H    -6.655000000     0.630000000    -2.167000000
H    -6.094000000     1.109000000    -0.845000000
O    -6.155000000     5.355000000     5.510000000
H    -5.292000000     4.946000000     5.448000000
H    -6.764000000     4.621000000     5.586000000
O    -0.297000000     1.510000000    -2.556000000
H    -0.428000000     1.353000000    -1.621000000
H     0.598000000     1.843000000    -2.620000000
O    -6.174000000     7.251000000    -1.307000000
H    -5.863000000     8.156000000    -1.310000000
H    -5.549000000     6.780000000    -1.858000000
