215
-1460.23444
C    -1.452000000    -4.691000000    -0.454000000
H    -2.368000000    -4.126000000    -0.604000000
C    -0.839000000    -4.630000000     0.801000000
C     0.382000000    -5.342000000     1.019000000
H     1.038000000    -5.271000000     1.883000000
C    -1.382000000    -3.652000000     1.847000000
O    -2.857000000    -3.642000000     2.036000000
H    -1.072000000    -2.676000000     1.444000000
O    -0.727000000    -3.826000000     3.141000000
C    -0.160000000    -2.718000000     3.788000000
C     1.203000000    -2.460000000     3.605000000
H     1.817000000    -3.102000000     2.978000000
C     1.739000000    -1.268000000     4.103000000
O     3.099000000    -1.001000000     3.782000000
C     0.934000000    -0.258000000     4.647000000
C     1.424000000     1.069000000     5.195000000
H     0.878000000     1.417000000     6.074000000
C     1.324000000     2.107000000     4.170000000
C     0.240000000     2.936000000     3.956000000
H    -0.638000000     2.760000000     4.572000000
H     2.423000000     1.038000000     5.635000000
C    -0.463000000    -0.566000000     4.823000000
H    -1.123000000     0.253000000     5.100000000
C    -0.941000000    -1.783000000     4.357000000
C    -2.487000000    -2.001000000     4.479000000
H    -2.847000000    -1.490000000     5.374000000
H    -2.828000000    -3.019000000     4.678000000
C    -3.155000000    -1.517000000     3.199000000
C    -3.815000000    -0.300000000     3.135000000
H    -3.731000000     0.390000000     3.970000000
C    -3.412000000    -2.376000000     2.132000000
C    -3.981000000    -1.974000000     0.918000000
H    -4.137000000    -2.667000000     0.095000000
C    -4.460000000    -0.701000000     0.887000000
O    -4.939000000    -0.255000000    -0.361000000
C    -4.041000000     0.522000000    -1.152000000
C    -4.138000000     0.149000000    -2.607000000
C    -3.507000000     0.899000000    -3.576000000
H    -2.905000000     1.737000000    -3.235000000
C    -4.557000000    -1.067000000    -2.951000000
H    -5.039000000    -1.718000000    -2.226000000
O    -4.438000000     1.942000000    -1.024000000
H    -2.990000000     0.389000000    -0.858000000
C    -4.528000000     0.123000000     2.013000000
C    -5.001000000     1.530000000     1.858000000
H    -5.312000000     1.816000000     2.865000000
H    -5.854000000     1.593000000     1.180000000
C    -3.955000000     2.520000000     1.308000000
C    -3.081000000     3.091000000     2.234000000
H    -3.016000000     2.665000000     3.231000000
C    -3.753000000     2.673000000    -0.042000000
C    -2.685000000     3.474000000    -0.448000000
H    -2.570000000     3.554000000    -1.526000000
C    -1.855000000     4.167000000     0.422000000
O    -0.781000000     4.916000000    -0.003000000
C     0.543000000     4.271000000    -0.041000000
C     1.185000000     4.526000000    -1.455000000
C     0.423000000     4.819000000    -2.572000000
H    -0.662000000     4.853000000    -2.517000000
C     2.558000000     4.389000000    -1.602000000
H     3.126000000     4.186000000    -0.698000000
O     1.382000000     4.740000000     1.002000000
H     0.372000000     3.191000000     0.080000000
C    -2.013000000     3.907000000     1.765000000
C    -1.135000000     4.632000000     2.768000000
H    -1.594000000     4.793000000     3.745000000
H    -0.969000000     5.614000000     2.321000000
C     0.182000000     3.928000000     3.034000000
C     1.300000000     3.996000000     2.170000000
C     2.458000000     3.255000000     2.353000000
H     3.311000000     3.286000000     1.679000000
C     2.480000000     2.234000000     3.284000000
O     3.601000000     1.359000000     3.296000000
C     3.333000000     0.018000000     2.793000000
H     2.449000000     0.046000000     2.140000000
C     4.476000000    -0.502000000     1.862000000
C     4.591000000    -1.877000000     1.543000000
H     3.780000000    -2.529000000     1.857000000
C     5.208000000     0.391000000     1.132000000
H     5.117000000     1.463000000     1.283000000
C     6.019000000     0.024000000     0.092000000
O     6.820000000     0.883000000    -0.707000000
C     6.296000000    -1.386000000    -0.100000000
H     7.021000000    -1.665000000    -0.860000000
C     5.523000000    -2.313000000     0.591000000
O     5.713000000    -3.632000000     0.326000000
C     4.959000000    -4.643000000     1.006000000
C     3.842000000    -5.243000000     0.393000000
H     3.593000000    -5.014000000    -0.640000000
C     5.129000000    -4.891000000     2.311000000
H     5.958000000    -4.530000000     2.915000000
C     4.262000000    -5.774000000     2.976000000
H     4.443000000    -6.004000000     4.023000000
C     3.289000000    -6.537000000     2.367000000
H     2.726000000    -7.243000000     2.971000000
C     3.055000000    -6.220000000     1.026000000
O     2.062000000    -6.824000000     0.308000000
C     0.815000000    -6.222000000     0.032000000
C     0.061000000    -6.440000000    -1.098000000
H     0.456000000    -7.146000000    -1.825000000
C    -1.080000000    -5.652000000    -1.322000000
O    -1.680000000    -5.701000000    -2.553000000
C    -2.994000000    -5.343000000    -2.720000000
C    -3.245000000    -4.339000000    -3.614000000
H    -2.489000000    -3.896000000    -4.257000000
C    -3.986000000    -5.934000000    -1.962000000
H    -3.791000000    -6.653000000    -1.171000000
C    -5.265000000    -5.469000000    -2.113000000
H    -6.071000000    -5.998000000    -1.611000000
C    -5.533000000    -4.414000000    -2.968000000
H    -6.492000000    -3.910000000    -3.057000000
C    -4.514000000    -3.837000000    -3.744000000
O    -4.758000000    -2.821000000    -4.630000000
C    -4.376000000    -1.556000000    -4.282000000
C    -3.924000000    -0.724000000    -5.306000000
H    -4.068000000    -1.011000000    -6.345000000
C    -3.430000000     0.517000000    -4.916000000
O    -2.785000000     1.338000000    -5.750000000
C    -2.506000000     2.678000000    -5.654000000
C    -1.221000000     3.138000000    -5.388000000
H    -0.572000000     2.282000000    -5.219000000
C    -3.464000000     3.607000000    -6.019000000
H    -4.466000000     3.293000000    -6.299000000
C    -3.190000000     4.928000000    -5.803000000
H    -3.916000000     5.735000000    -5.736000000
C    -1.956000000     5.373000000    -5.484000000
H    -1.744000000     6.433000000    -5.368000000
C    -0.932000000     4.504000000    -5.214000000
O     0.333000000     5.033000000    -4.936000000
C     1.049000000     4.925000000    -3.820000000
C     2.469000000     4.885000000    -3.895000000
H     2.945000000     5.012000000    -4.863000000
C     3.232000000     4.551000000    -2.797000000
O     4.581000000     4.371000000    -2.850000000
C     5.374000000     3.912000000    -1.836000000
C     5.984000000     4.869000000    -1.062000000
H     5.763000000     5.924000000    -1.200000000
C     6.873000000     4.468000000    -0.062000000
H     7.382000000     5.118000000     0.645000000
C     7.131000000     3.062000000     0.101000000
H     7.868000000     2.785000000     0.851000000
C     6.455000000     2.209000000    -0.743000000
C     5.548000000     2.579000000    -1.751000000
H     5.197000000     1.921000000    -2.542000000
C    -0.512000000    -0.714000000    -2.084000000
H    -1.086000000    -1.238000000    -2.844000000
C    -0.951000000    -0.889000000    -0.832000000
H    -1.729000000    -1.646000000    -0.761000000
C    -0.407000000    -0.148000000     0.233000000
H    -0.678000000    -0.340000000     1.317000000
C     0.682000000     0.655000000    -0.036000000
H     1.249000000     1.157000000     0.743000000
C     1.258000000     0.765000000    -1.342000000
H     2.150000000     1.370000000    -1.478000000
C     0.630000000     0.048000000    -2.433000000
C     1.102000000     0.231000000    -3.863000000
O     2.053000000     1.011000000    -4.019000000
O     0.381000000    -0.077000000    -4.801000000
O    -1.514000000     0.778000000    -8.487000000
H    -0.791000000     1.193000000    -8.017000000
H    -1.475000000     1.153000000    -9.367000000
O     5.931000000     2.813000000    -5.579000000
H     4.975000000     2.844000000    -5.537000000
H     6.163000000     1.984000000    -5.161000000
O     4.098000000     0.079000000    -5.928000000
H     4.642000000    -0.587000000    -5.508000000
H     3.394000000     0.243000000    -5.300000000
O     1.778000000     3.743000000    -7.649000000
H     2.487000000     3.721000000    -7.007000000
H     2.219000000     3.865000000    -8.490000000
O     4.785000000    -4.402000000    -6.133000000
H     4.417000000    -4.746000000    -6.946000000
H     4.042000000    -3.997000000    -5.686000000
O     2.272000000    -2.374000000    -1.120000000
H     1.470000000    -2.845000000    -1.346000000
H     2.002000000    -1.458000000    -1.058000000
O     0.913000000    -5.236000000    -5.519000000
H     0.353000000    -4.700000000    -6.080000000
H     0.502000000    -6.100000000    -5.525000000
O    -1.500000000    -1.542000000    -6.353000000
H    -1.404000000    -0.973000000    -7.117000000
H    -1.078000000    -1.061000000    -5.641000000
O     3.407000000    -1.648000000    -9.544000000
H     2.619000000    -2.129000000    -9.289000000
H     4.110000000    -2.296000000    -9.491000000
O     4.668000000     0.578000000    -8.574000000
H     4.650000000     0.369000000    -7.640000000
H     4.318000000    -0.204000000    -9.001000000
O     1.736000000     0.870000000    -9.848000000
H     1.978000000    -0.055000000    -9.820000000
H     1.833000000     1.171000000    -8.944000000
O     3.353000000     2.744000000    -5.708000000
H     2.675000000     2.552000000    -5.060000000
H     3.583000000     1.890000000    -6.075000000
O     2.572000000    -3.141000000    -4.902000000
H     2.124000000    -3.986000000    -4.849000000
H     2.044000000    -2.629000000    -5.514000000
O    -1.231000000    -4.311000000    -6.784000000
H    -2.012000000    -4.840000000    -6.946000000
H    -1.562000000    -3.417000000    -6.693000000
O     3.865000000    -3.726000000    -2.775000000
H     3.411000000    -3.431000000    -3.564000000
H     3.350000000    -3.364000000    -2.053000000
O     5.493000000    -1.540000000    -3.975000000
H     4.801000000    -1.849000000    -3.391000000
H     6.280000000    -1.996000000    -3.677000000
O    -0.327000000    -1.671000000    -9.150000000
H    -0.125000000    -2.195000000    -8.375000000
H    -0.497000000    -0.793000000    -8.808000000
O     1.502000000    -1.718000000    -6.870000000
H     2.253000000    -1.173000000    -7.104000000
H     1.053000000    -1.225000000    -6.182000000
O     0.736000000     1.297000000    -6.935000000
H     0.636000000     1.031000000    -6.021000000
H     1.271000000     2.091000000    -6.896000000
