215
-1450.22922
C    -2.615000000    -4.010000000     1.378000000
H    -3.291000000    -3.291000000     0.922000000
C    -1.904000000    -3.684000000     2.517000000
C    -0.974000000    -4.569000000     3.098000000
H    -0.411000000    -4.176000000     3.941000000
C    -1.968000000    -2.250000000     2.998000000
O    -3.336000000    -1.778000000     2.925000000
H    -1.185000000    -1.720000000     2.436000000
O    -1.507000000    -2.164000000     4.333000000
C    -0.739000000    -1.085000000     4.514000000
C     0.648000000    -1.217000000     4.361000000
H     1.096000000    -2.203000000     4.274000000
C     1.513000000    -0.099000000     4.324000000
O     2.850000000    -0.236000000     4.020000000
C     0.959000000     1.182000000     4.549000000
C     1.794000000     2.400000000     4.710000000
H     1.324000000     3.105000000     5.398000000
C     2.004000000     2.932000000     3.329000000
C     1.218000000     3.961000000     2.850000000
H     0.431000000     4.321000000     3.508000000
H     2.751000000     2.134000000     5.164000000
C    -0.455000000     1.251000000     4.717000000
H    -0.831000000     2.263000000     4.849000000
C    -1.316000000     0.150000000     4.680000000
C    -2.777000000     0.322000000     4.789000000
H    -3.006000000     1.176000000     5.430000000
H    -3.134000000    -0.615000000     5.220000000
C    -3.383000000     0.641000000     3.466000000
C    -3.502000000     1.913000000     2.957000000
H    -3.281000000     2.745000000     3.620000000
C    -3.704000000    -0.441000000     2.635000000
C    -4.235000000    -0.246000000     1.372000000
H    -4.505000000    -1.101000000     0.758000000
C    -4.390000000     1.024000000     0.856000000
O    -4.728000000     1.196000000    -0.438000000
C    -3.665000000     1.479000000    -1.378000000
C    -3.884000000     0.554000000    -2.637000000
C    -3.596000000     1.109000000    -3.904000000
H    -3.133000000     2.079000000    -4.062000000
C    -4.415000000    -0.720000000    -2.490000000
H    -4.725000000    -1.088000000    -1.516000000
O    -3.651000000     2.896000000    -1.711000000
H    -2.755000000     1.105000000    -0.886000000
C    -3.972000000     2.150000000     1.629000000
C    -4.020000000     3.548000000     1.014000000
H    -4.115000000     4.361000000     1.737000000
H    -4.922000000     3.573000000     0.398000000
C    -2.783000000     4.022000000     0.239000000
C    -1.818000000     4.787000000     0.918000000
H    -1.925000000     4.849000000     1.998000000
C    -2.715000000     3.703000000    -1.094000000
C    -1.575000000     4.167000000    -1.774000000
H    -1.606000000     3.977000000    -2.844000000
C    -0.557000000     4.868000000    -1.155000000
O     0.675000000     4.953000000    -1.767000000
C     1.667000000     3.943000000    -1.488000000
C     2.235000000     3.413000000    -2.756000000
C     1.462000000     3.339000000    -3.915000000
H     0.467000000     3.774000000    -3.951000000
C     3.552000000     2.894000000    -2.797000000
H     4.058000000     2.891000000    -1.835000000
O     2.651000000     4.393000000    -0.533000000
H     1.051000000     3.166000000    -1.011000000
C    -0.679000000     5.119000000     0.241000000
C     0.467000000     5.634000000     1.069000000
H     0.076000000     6.008000000     2.017000000
H     1.009000000     6.471000000     0.626000000
C     1.355000000     4.462000000     1.575000000
C     2.398000000     3.996000000     0.708000000
C     3.195000000     2.951000000     1.191000000
H     3.990000000     2.577000000     0.550000000
C     2.986000000     2.395000000     2.443000000
O     3.774000000     1.348000000     2.704000000
C     3.219000000     0.057000000     2.659000000
H     2.264000000     0.083000000     2.114000000
C     4.020000000    -1.095000000     1.921000000
C     3.873000000    -2.417000000     2.374000000
H     3.195000000    -2.573000000     3.210000000
C     4.818000000    -0.833000000     0.769000000
H     4.776000000     0.157000000     0.320000000
C     5.259000000    -1.906000000     0.022000000
O     5.821000000    -1.730000000    -1.187000000
C     5.239000000    -3.211000000     0.522000000
H     5.697000000    -4.059000000     0.019000000
C     4.569000000    -3.458000000     1.687000000
O     4.473000000    -4.796000000     2.073000000
C     3.532000000    -5.251000000     2.962000000
C     2.277000000    -5.556000000     2.569000000
H     1.991000000    -5.286000000     1.556000000
C     3.977000000    -5.630000000     4.210000000
H     5.003000000    -5.386000000     4.472000000
C     3.200000000    -6.394000000     5.123000000
H     3.578000000    -6.781000000     6.066000000
C     1.997000000    -6.831000000     4.594000000
H     1.352000000    -7.506000000     5.150000000
C     1.427000000    -6.378000000     3.407000000
O     0.096000000    -6.741000000     3.046000000
C    -0.761000000    -5.801000000     2.492000000
C    -1.498000000    -6.115000000     1.310000000
H    -1.344000000    -7.091000000     0.857000000
C    -2.440000000    -5.216000000     0.757000000
O    -3.026000000    -5.549000000    -0.484000000
C    -4.167000000    -4.938000000    -0.876000000
C    -4.126000000    -4.119000000    -1.987000000
H    -3.185000000    -3.826000000    -2.446000000
C    -5.382000000    -5.210000000    -0.227000000
H    -5.425000000    -5.734000000     0.724000000
C    -6.580000000    -4.680000000    -0.731000000
H    -7.549000000    -4.823000000    -0.260000000
C    -6.536000000    -3.880000000    -1.893000000
H    -7.501000000    -3.607000000    -2.312000000
C    -5.305000000    -3.581000000    -2.476000000
O    -5.238000000    -2.727000000    -3.511000000
C    -4.553000000    -1.526000000    -3.565000000
C    -4.227000000    -1.051000000    -4.822000000
H    -4.318000000    -1.720000000    -5.674000000
C    -3.598000000     0.208000000    -4.944000000
O    -2.993000000     0.487000000    -6.169000000
C    -2.330000000     1.683000000    -6.410000000
C    -0.998000000     1.821000000    -5.986000000
H    -0.598000000     1.016000000    -5.375000000
C    -2.835000000     2.468000000    -7.410000000
H    -3.795000000     2.240000000    -7.865000000
C    -1.974000000     3.466000000    -7.937000000
H    -2.314000000     4.086000000    -8.762000000
C    -0.701000000     3.690000000    -7.386000000
H    -0.014000000     4.450000000    -7.751000000
C    -0.125000000     2.831000000    -6.465000000
O     1.240000000     2.783000000    -6.328000000
C     1.972000000     2.804000000    -5.121000000
C     3.303000000     2.381000000    -5.120000000
H     3.791000000     2.052000000    -6.034000000
C     4.131000000     2.529000000    -4.021000000
O     5.426000000     2.039000000    -4.136000000
C     6.065000000     1.418000000    -3.049000000
C     7.032000000     2.036000000    -2.260000000
H     7.401000000     3.037000000    -2.472000000
C     7.568000000     1.393000000    -1.150000000
H     8.270000000     1.919000000    -0.509000000
C     7.209000000     0.075000000    -0.793000000
H     7.618000000    -0.426000000     0.081000000
C     6.291000000    -0.498000000    -1.579000000
C     5.656000000     0.116000000    -2.591000000
H     4.803000000    -0.354000000    -3.074000000
C    -1.139000000    -1.077000000    -1.469000000
H    -2.084000000    -1.612000000    -1.430000000
C    -0.946000000    -0.350000000    -0.286000000
H    -1.718000000    -0.412000000     0.478000000
C     0.272000000     0.325000000    -0.079000000
H     0.475000000     1.028000000     0.800000000
C     1.225000000     0.228000000    -1.033000000
H     2.201000000     0.693000000    -0.923000000
C     1.032000000    -0.390000000    -2.273000000
H     1.805000000    -0.317000000    -3.034000000
C    -0.097000000    -1.140000000    -2.419000000
C    -0.374000000    -2.044000000    -3.611000000
O     0.630000000    -2.244000000    -4.240000000
O    -1.296000000    -2.838000000    -3.553000000
O     0.963000000    -5.998000000    -7.163000000
H     1.539000000    -6.711000000    -7.438000000
H     1.188000000    -5.849000000    -6.245000000
O    -4.727000000    -0.803000000    -8.574000000
H    -4.257000000    -0.442000000    -9.326000000
H    -4.094000000    -0.768000000    -7.857000000
O    -5.776000000    -5.108000000    -5.776000000
H    -5.103000000    -4.907000000    -5.126000000
H    -5.456000000    -4.709000000    -6.585000000
O     2.813000000    -0.068000000    -7.830000000
H     2.014000000     0.458000000    -7.820000000
H     2.504000000    -0.973000000    -7.838000000
O     3.314000000    -5.973000000    -0.979000000
H     2.963000000    -5.087000000    -1.060000000
H     3.580000000    -6.208000000    -1.868000000
O     1.870000000    -3.634000000    -0.873000000
H     1.683000000    -2.866000000    -0.333000000
H     1.010000000    -3.941000000    -1.160000000
O    -0.420000000    -4.925000000    -2.013000000
H    -0.722000000    -4.286000000    -2.659000000
H    -1.218000000    -5.215000000    -1.571000000
O    -2.330000000    -5.394000000    -7.314000000
H    -1.901000000    -5.783000000    -6.552000000
H    -2.614000000    -4.530000000    -7.014000000
O    -0.683000000    -5.629000000    -4.836000000
H    -0.590000000    -4.678000000    -4.781000000
H     0.190000000    -5.968000000    -4.638000000
O    -2.530000000    -3.081000000    -6.192000000
H    -2.123000000    -2.388000000    -6.714000000
H    -2.054000000    -3.066000000    -5.362000000
O     3.043000000    -2.813000000    -6.593000000
H     2.217000000    -2.393000000    -6.833000000
H     2.903000000    -3.123000000    -5.698000000
O     1.917000000    -6.340000000    -4.606000000
H     2.536000000    -7.061000000    -4.484000000
H     2.442000000    -5.550000000    -4.476000000
O     2.682000000    -3.512000000    -3.786000000
H     1.813000000    -3.116000000    -3.851000000
H     2.847000000    -3.577000000    -2.846000000
O     0.527000000    -3.916000000    -8.891000000
H     0.347000000    -4.771000000    -8.500000000
H     0.543000000    -3.312000000    -8.148000000
O    -0.902000000    -7.841000000    -3.303000000
H    -1.026000000    -6.984000000    -3.710000000
H    -0.563000000    -8.394000000    -4.007000000
O    -2.010000000    -1.722000000    -9.059000000
H    -2.283000000    -2.619000000    -9.254000000
H    -1.215000000    -1.823000000    -8.535000000
O     0.289000000    -1.701000000    -6.877000000
H     0.328000000    -1.862000000    -5.934000000
H     0.391000000    -0.753000000    -6.961000000
O     0.394000000     0.555000000    -8.785000000
H     1.059000000     0.742000000    -9.447000000
H    -0.437000000     0.760000000    -9.214000000
O     5.423000000    -3.534000000    -4.750000000
H     4.959000000    -3.368000000    -5.571000000
H     4.743000000    -3.492000000    -4.078000000
