215
-1459.08952
C    -3.189000000    -4.097000000     2.002000000
H    -4.131000000    -3.608000000     1.768000000
C    -2.139000000    -3.500000000     2.725000000
C    -0.993000000    -4.260000000     2.881000000
H    -0.178000000    -3.750000000     3.388000000
C    -2.239000000    -1.997000000     3.140000000
O    -3.564000000    -1.446000000     3.244000000
H    -1.727000000    -1.493000000     2.307000000
O    -1.493000000    -1.772000000     4.385000000
C    -0.620000000    -0.693000000     4.559000000
C     0.722000000    -0.933000000     4.503000000
H     1.045000000    -1.971000000     4.477000000
C     1.639000000     0.144000000     4.363000000
O     2.968000000    -0.113000000     4.120000000
C     1.176000000     1.495000000     4.528000000
C     2.082000000     2.747000000     4.404000000
H     1.591000000     3.507000000     5.015000000
C     2.248000000     3.091000000     3.018000000
C     1.396000000     4.000000000     2.428000000
H     0.544000000     4.471000000     2.911000000
H     3.070000000     2.556000000     4.827000000
C    -0.183000000     1.691000000     4.717000000
H    -0.660000000     2.665000000     4.788000000
C    -1.068000000     0.603000000     4.654000000
C    -2.519000000     0.779000000     4.730000000
H    -2.786000000     1.647000000     5.337000000
H    -3.092000000     0.002000000     5.241000000
C    -3.170000000     0.936000000     3.378000000
C    -3.367000000     2.236000000     2.824000000
H    -2.964000000     3.125000000     3.302000000
C    -3.793000000    -0.186000000     2.769000000
C    -4.388000000    -0.042000000     1.542000000
H    -4.743000000    -0.903000000     0.982000000
C    -4.523000000     1.186000000     0.952000000
O    -4.984000000     1.271000000    -0.320000000
C    -3.918000000     1.468000000    -1.265000000
C    -4.046000000     0.426000000    -2.455000000
C    -3.665000000     0.790000000    -3.759000000
H    -3.459000000     1.840000000    -3.954000000
C    -4.484000000    -0.904000000    -2.227000000
H    -4.738000000    -1.199000000    -1.213000000
O    -3.986000000     2.829000000    -1.709000000
H    -2.978000000     1.338000000    -0.707000000
C    -3.972000000     2.360000000     1.600000000
C    -4.108000000     3.730000000     1.000000000
H    -4.284000000     4.398000000     1.845000000
H    -5.078000000     3.879000000     0.521000000
C    -2.932000000     3.969000000     0.058000000
C    -1.866000000     4.724000000     0.536000000
H    -1.875000000     5.132000000     1.543000000
C    -2.974000000     3.633000000    -1.295000000
C    -1.776000000     3.664000000    -2.004000000
H    -1.769000000     3.205000000    -2.989000000
C    -0.619000000     4.216000000    -1.461000000
O     0.530000000     4.253000000    -2.191000000
C     1.568000000     3.357000000    -1.856000000
C     2.254000000     2.959000000    -3.180000000
C     1.452000000     2.636000000    -4.287000000
H     0.377000000     2.787000000    -4.220000000
C     3.650000000     2.666000000    -3.198000000
H     4.195000000     2.681000000    -2.258000000
O     2.547000000     3.918000000    -0.990000000
H     1.065000000     2.497000000    -1.389000000
C    -0.645000000     4.767000000    -0.158000000
C     0.581000000     5.383000000     0.493000000
H     0.377000000     6.150000000     1.244000000
H     0.990000000     5.959000000    -0.339000000
C     1.558000000     4.339000000     1.101000000
C     2.496000000     3.745000000     0.384000000
C     3.414000000     2.950000000     0.968000000
H     4.252000000     2.539000000     0.411000000
C     3.307000000     2.588000000     2.313000000
O     4.079000000     1.523000000     2.717000000
C     3.387000000     0.190000000     2.789000000
H     2.511000000     0.376000000     2.150000000
C     4.236000000    -0.880000000     2.152000000
C     4.149000000    -2.224000000     2.578000000
H     3.639000000    -2.382000000     3.525000000
C     4.922000000    -0.647000000     0.919000000
H     5.076000000     0.344000000     0.501000000
C     5.462000000    -1.747000000     0.206000000
O     6.059000000    -1.473000000    -0.969000000
C     5.404000000    -3.069000000     0.723000000
H     5.998000000    -3.760000000     0.129000000
C     4.735000000    -3.284000000     1.915000000
O     4.725000000    -4.548000000     2.532000000
C     3.703000000    -5.007000000     3.246000000
C     2.521000000    -5.403000000     2.635000000
H     2.473000000    -5.375000000     1.550000000
C     3.810000000    -5.062000000     4.663000000
H     4.725000000    -4.708000000     5.130000000
C     2.826000000    -5.679000000     5.410000000
H     2.914000000    -5.747000000     6.491000000
C     1.684000000    -6.175000000     4.792000000
H     0.997000000    -6.754000000     5.403000000
C     1.501000000    -5.965000000     3.400000000
O     0.327000000    -6.393000000     2.798000000
C    -0.857000000    -5.605000000     2.528000000
C    -1.898000000    -6.210000000     1.877000000
H    -1.769000000    -7.239000000     1.552000000
C    -3.067000000    -5.454000000     1.572000000
O    -4.118000000    -5.974000000     0.877000000
C    -4.851000000    -5.312000000    -0.041000000
C    -4.204000000    -4.573000000    -1.069000000
H    -3.117000000    -4.599000000    -1.079000000
C    -6.190000000    -5.453000000    -0.012000000
H    -6.657000000    -6.024000000     0.787000000
C    -6.980000000    -4.714000000    -0.913000000
H    -8.066000000    -4.725000000    -0.897000000
C    -6.402000000    -3.942000000    -1.864000000
H    -7.005000000    -3.335000000    -2.534000000
C    -4.998000000    -3.769000000    -1.929000000
O    -4.442000000    -3.177000000    -3.004000000
C    -4.389000000    -1.854000000    -3.249000000
C    -3.972000000    -1.494000000    -4.522000000
H    -3.781000000    -2.227000000    -5.301000000
C    -3.620000000    -0.176000000    -4.763000000
O    -3.311000000     0.249000000    -6.053000000
C    -2.374000000     1.192000000    -6.416000000
C    -0.968000000     1.070000000    -6.218000000
H    -0.573000000     0.236000000    -5.643000000
C    -2.823000000     2.241000000    -7.215000000
H    -3.877000000     2.335000000    -7.465000000
C    -1.910000000     3.224000000    -7.713000000
H    -2.219000000     4.067000000    -8.326000000
C    -0.571000000     3.061000000    -7.446000000
H     0.061000000     3.805000000    -7.924000000
C    -0.093000000     2.038000000    -6.649000000
O     1.273000000     1.889000000    -6.578000000
C     2.047000000     2.280000000    -5.509000000
C     3.420000000     2.087000000    -5.577000000
H     3.867000000     1.697000000    -6.488000000
C     4.187000000     2.243000000    -4.400000000
O     5.508000000     1.799000000    -4.443000000
C     6.125000000     1.327000000    -3.290000000
C     7.103000000     2.204000000    -2.701000000
H     7.405000000     3.162000000    -3.116000000
C     7.698000000     1.796000000    -1.536000000
H     8.593000000     2.273000000    -1.145000000
C     7.339000000     0.623000000    -0.939000000
H     7.796000000     0.444000000     0.030000000
C     6.398000000    -0.267000000    -1.485000000
C     5.806000000     0.113000000    -2.714000000
H     5.158000000    -0.581000000    -3.243000000
C    -0.182000000    -1.083000000    -3.041000000
H    -0.843000000    -1.255000000    -3.887000000
C    -0.784000000    -0.699000000    -1.866000000
H    -1.870000000    -0.651000000    -1.892000000
C     0.040000000    -0.588000000    -0.826000000
H    -0.312000000    -0.380000000     0.119000000
C     1.381000000    -0.715000000    -0.949000000
H     1.901000000    -0.589000000    -0.002000000
C     2.000000000    -1.012000000    -2.148000000
H     3.068000000    -1.146000000    -2.299000000
C     1.164000000    -1.265000000    -3.256000000
C     1.721000000    -1.609000000    -4.619000000
O     2.913000000    -1.888000000    -4.724000000
O     0.985000000    -1.574000000    -5.580000000
O     0.641000000    -7.788000000    -6.148000000
H     1.552000000    -7.949000000    -6.393000000
H     0.521000000    -6.848000000    -6.278000000
O     4.312000000    -1.164000000    -6.802000000
H     3.681000000    -0.847000000    -7.449000000
H     3.808000000    -1.232000000    -5.990000000
O     3.673000000    -4.604000000    -1.392000000
H     2.837000000    -4.163000000    -1.237000000
H     3.999000000    -4.219000000    -2.205000000
O     0.485000000    -3.944000000    -0.730000000
H     0.721000000    -3.034000000    -0.908000000
H    -0.118000000    -4.178000000    -1.435000000
O    -0.560000000    -5.141000000    -2.862000000
H    -0.155000000    -4.610000000    -3.547000000
H    -0.378000000    -6.045000000    -3.121000000
O    -1.250000000    -5.361000000    -6.641000000
H    -1.718000000    -5.667000000    -5.864000000
H    -1.408000000    -4.417000000    -6.660000000
O     1.579000000    -4.686000000    -4.639000000
H     1.697000000    -4.473000000    -5.564000000
H     2.444000000    -4.976000000    -4.348000000
O    -1.384000000    -2.676000000    -6.172000000
H    -1.554000000    -2.167000000    -6.964000000
H    -0.518000000    -2.388000000    -5.883000000
O     6.453000000     0.228000000    -7.351000000
H     5.727000000    -0.373000000    -7.184000000
H     6.502000000     0.770000000    -6.564000000
O     4.698000000    -5.346000000    -6.960000000
H     3.896000000    -4.978000000    -7.330000000
H     4.475000000    -5.542000000    -6.051000000
O     4.251000000    -6.022000000    -4.401000000
H     4.937000000    -6.678000000    -4.281000000
H     4.559000000    -5.260000000    -3.910000000
O    -1.204000000     0.713000000    -9.791000000
H    -0.741000000     1.155000000    -9.079000000
H    -1.218000000    -0.208000000    -9.532000000
O     4.653000000    -3.189000000    -3.619000000
H     4.000000000    -2.725000000    -4.142000000
H     5.491000000    -2.819000000    -3.898000000
O     1.027000000    -5.904000000    -8.299000000
H     0.565000000    -5.235000000    -7.794000000
H     1.497000000    -5.413000000    -8.973000000
O     7.676000000    -2.708000000    -3.293000000
H     8.552000000    -2.856000000    -2.936000000
H     7.105000000    -2.688000000    -2.525000000
O    -0.666000000    -1.901000000    -9.160000000
H    -1.306000000    -2.580000000    -9.376000000
H     0.142000000    -2.382000000    -8.983000000
O     2.337000000    -3.542000000    -6.920000000
H     2.249000000    -3.008000000    -6.130000000
H     2.442000000    -2.907000000    -7.628000000
O     2.164000000    -0.241000000    -8.357000000
H     1.968000000     0.679000000    -8.538000000
H     1.767000000    -0.407000000    -7.503000000
O     6.463000000    -3.152000000    -6.811000000
H     5.938000000    -3.951000000    -6.771000000
H     5.829000000    -2.456000000    -6.984000000
