215
-1469.14066
C     2.472000000     2.104000000    -4.315000000
H     2.812000000     1.199000000    -4.812000000
C     2.862000000     2.328000000    -2.972000000
C     2.339000000     3.459000000    -2.427000000
H     2.569000000     3.615000000    -1.376000000
C     3.516000000     1.227000000    -2.077000000
O     4.096000000     0.186000000    -2.932000000
H     2.785000000     0.730000000    -1.423000000
O     4.520000000     1.777000000    -1.209000000
C     4.515000000     1.437000000     0.133000000
C     3.835000000     2.275000000     1.008000000
H     3.488000000     3.256000000     0.694000000
C     3.793000000     1.917000000     2.323000000
O     3.150000000     2.701000000     3.203000000
C     4.197000000     0.589000000     2.681000000
C     3.853000000     0.049000000     4.022000000
H     4.615000000    -0.647000000     4.378000000
C     2.526000000    -0.569000000     4.094000000
C     2.387000000    -1.963000000     3.844000000
H     3.258000000    -2.591000000     3.677000000
H     3.883000000     0.845000000     4.769000000
C     4.747000000    -0.313000000     1.788000000
H     5.088000000    -1.311000000     2.051000000
C     4.862000000     0.121000000     0.419000000
C     5.460000000    -0.814000000    -0.664000000
H     6.176000000    -1.518000000    -0.235000000
H     6.075000000    -0.235000000    -1.355000000
C     4.389000000    -1.624000000    -1.418000000
C     4.134000000    -2.961000000    -1.044000000
H     4.623000000    -3.395000000    -0.176000000
C     3.812000000    -1.082000000    -2.541000000
C     2.786000000    -1.754000000    -3.204000000
H     2.249000000    -1.255000000    -4.006000000
C     2.444000000    -3.044000000    -2.726000000
O     1.242000000    -3.471000000    -3.303000000
C     0.033000000    -3.305000000    -2.556000000
C    -1.150000000    -2.790000000    -3.447000000
C    -2.448000000    -3.166000000    -3.144000000
H    -2.653000000    -3.637000000    -2.187000000
C    -0.874000000    -2.051000000    -4.632000000
H     0.151000000    -1.815000000    -4.906000000
O    -0.236000000    -4.609000000    -1.932000000
H     0.238000000    -2.545000000    -1.788000000
C     3.079000000    -3.618000000    -1.611000000
C     2.544000000    -4.972000000    -1.122000000
H     3.363000000    -5.472000000    -0.601000000
H     2.245000000    -5.664000000    -1.912000000
C     1.405000000    -4.752000000    -0.138000000
C     1.695000000    -4.645000000     1.231000000
H     2.725000000    -4.844000000     1.517000000
C     0.102000000    -4.788000000    -0.574000000
C    -0.886000000    -4.493000000     0.283000000
H    -1.898000000    -4.458000000    -0.111000000
C    -0.584000000    -4.109000000     1.630000000
O    -1.700000000    -3.907000000     2.447000000
C    -1.950000000    -2.569000000     2.787000000
C    -3.431000000    -2.034000000     2.768000000
C    -4.410000000    -2.791000000     2.058000000
H    -4.069000000    -3.627000000     1.453000000
C    -3.801000000    -0.913000000     3.524000000
H    -3.121000000    -0.344000000     4.154000000
O    -1.310000000    -2.304000000     4.055000000
H    -1.484000000    -1.859000000     2.088000000
C     0.666000000    -4.327000000     2.133000000
C     1.102000000    -3.966000000     3.541000000
H     2.054000000    -4.470000000     3.719000000
H     0.517000000    -4.460000000     4.319000000
C     1.102000000    -2.489000000     3.857000000
C    -0.061000000    -1.678000000     4.053000000
C     0.068000000    -0.342000000     4.360000000
H    -0.764000000     0.323000000     4.579000000
C     1.396000000     0.183000000     4.442000000
O     1.555000000     1.576000000     4.571000000
C     1.717000000     2.382000000     3.381000000
H     1.374000000     1.669000000     2.616000000
C     0.661000000     3.506000000     3.347000000
C     1.017000000     4.704000000     2.700000000
H     2.005000000     4.831000000     2.266000000
C    -0.589000000     3.481000000     3.906000000
H    -0.881000000     2.551000000     4.388000000
C    -1.475000000     4.547000000     3.819000000
O    -2.776000000     4.402000000     4.318000000
C    -1.106000000     5.781000000     3.244000000
H    -1.692000000     6.693000000     3.162000000
C     0.153000000     5.803000000     2.637000000
O     0.580000000     6.943000000     1.996000000
C     1.350000000     6.893000000     0.857000000
C     0.887000000     6.111000000    -0.169000000
H     0.026000000     5.466000000    -0.013000000
C     2.408000000     7.765000000     0.678000000
H     2.681000000     8.360000000     1.545000000
C     3.120000000     7.712000000    -0.496000000
H     3.875000000     8.488000000    -0.597000000
C     2.613000000     7.005000000    -1.603000000
H     2.980000000     7.197000000    -2.608000000
C     1.514000000     6.147000000    -1.384000000
O     0.886000000     5.480000000    -2.401000000
C     1.489000000     4.342000000    -3.042000000
C     1.314000000     4.221000000    -4.393000000
H     0.644000000     4.985000000    -4.778000000
C     1.698000000     3.033000000    -4.995000000
O     1.460000000     2.737000000    -6.301000000
C     1.084000000     1.512000000    -6.773000000
C    -0.085000000     0.918000000    -6.315000000
H    -0.661000000     1.373000000    -5.514000000
C     1.755000000     1.000000000    -7.878000000
H     2.647000000     1.517000000    -8.223000000
C     1.249000000    -0.141000000    -8.529000000
H     1.758000000    -0.497000000    -9.421000000
C     0.136000000    -0.788000000    -7.930000000
H    -0.324000000    -1.604000000    -8.482000000
C    -0.596000000    -0.224000000    -6.907000000
O    -1.789000000    -0.807000000    -6.578000000
C    -1.933000000    -1.579000000    -5.425000000
C    -3.213000000    -1.935000000    -5.060000000
H    -4.046000000    -1.598000000    -5.672000000
C    -3.482000000    -2.691000000    -3.927000000
O    -4.870000000    -3.136000000    -3.668000000
C    -5.314000000    -3.728000000    -2.468000000
C    -5.392000000    -2.944000000    -1.294000000
H    -4.890000000    -1.982000000    -1.225000000
C    -5.982000000    -4.938000000    -2.530000000
H    -6.114000000    -5.502000000    -3.450000000
C    -6.573000000    -5.469000000    -1.359000000
H    -6.942000000    -6.491000000    -1.373000000
C    -6.620000000    -4.731000000    -0.215000000
H    -7.115000000    -5.134000000     0.664000000
C    -6.106000000    -3.468000000    -0.181000000
O    -6.491000000    -2.713000000     0.862000000
C    -5.664000000    -2.238000000     1.825000000
C    -6.062000000    -1.192000000     2.680000000
H    -7.093000000    -0.848000000     2.666000000
C    -5.140000000    -0.517000000     3.455000000
O    -5.542000000     0.566000000     4.145000000
C    -4.647000000     1.266000000     4.930000000
C    -4.401000000     1.078000000     6.279000000
H    -4.910000000     0.260000000     6.784000000
C    -3.451000000     1.905000000     6.937000000
H    -3.219000000     1.839000000     7.997000000
C    -2.894000000     3.002000000     6.257000000
H    -2.278000000     3.746000000     6.755000000
C    -3.242000000     3.232000000     4.942000000
C    -4.067000000     2.356000000     4.232000000
H    -4.197000000     2.517000000     3.165000000
C    -2.660000000     0.950000000     0.067000000
H    -3.734000000     1.028000000    -0.083000000
C    -1.870000000    -0.202000000     0.118000000
H    -2.310000000    -1.190000000     0.014000000
C    -0.446000000    -0.117000000     0.134000000
H     0.209000000    -0.990000000     0.179000000
C     0.109000000     1.103000000     0.197000000
H     1.161000000     1.288000000     0.398000000
C    -0.610000000     2.273000000     0.200000000
H    -0.029000000     3.191000000     0.160000000
C    -1.979000000     2.195000000     0.014000000
C    -2.856000000     3.458000000     0.142000000
O    -2.388000000     4.497000000    -0.308000000
O    -4.069000000     3.413000000     0.207000000
O    -6.817000000     7.500000000     1.260000000
H    -6.284000000     6.772000000     1.580000000
H    -6.201000000     8.227000000     1.170000000
O    -1.597000000     3.945000000    -2.966000000
H    -1.400000000     3.009000000    -2.934000000
H    -1.854000000     4.167000000    -2.071000000
O    -4.667000000     1.093000000    -3.569000000
H    -5.185000000     1.850000000    -3.295000000
H    -5.315000000     0.445000000    -3.843000000
O    -1.701000000     3.936000000    -5.727000000
H    -2.635000000     4.040000000    -5.546000000
H    -1.300000000     3.831000000    -4.864000000
O    -4.657000000     5.642000000    -1.586000000
H    -3.951000000     6.288000000    -1.610000000
H    -4.309000000     4.926000000    -1.053000000
O    -6.252000000     2.143000000     1.149000000
H    -6.345000000     1.399000000     0.554000000
H    -5.627000000     2.722000000     0.712000000
O    -7.265000000     5.534000000    -0.949000000
H    -6.310000000     5.599000000    -0.956000000
H    -7.538000000     6.109000000    -0.234000000
O    -7.255000000     3.192000000     3.426000000
H    -8.192000000     3.111000000     3.249000000
H    -6.831000000     2.870000000     2.631000000
O    -5.719000000     5.140000000     1.995000000
H    -6.187000000     4.438000000     2.448000000
H    -5.120000000     4.685000000     1.403000000
O    -6.395000000     3.047000000    -2.623000000
H    -6.338000000     3.982000000    -2.425000000
H    -7.322000000     2.836000000    -2.514000000
O    -4.829000000     9.067000000     0.400000000
H    -4.743000000     9.713000000     1.101000000
H    -4.407000000     8.281000000     0.746000000
O    -2.045000000     6.972000000    -1.225000000
H    -2.120000000     6.060000000    -0.945000000
H    -1.221000000     7.273000000    -0.843000000
O    -4.149000000     4.494000000    -4.557000000
H    -4.162000000     4.472000000    -3.600000000
H    -4.600000000     5.308000000    -4.783000000
O    -1.322000000     6.599000000    -4.259000000
H    -1.012000000     7.024000000    -3.459000000
H    -1.220000000     5.662000000    -4.087000000
O    -3.587000000     6.922000000     1.160000000
H    -3.192000000     6.140000000     0.774000000
H    -4.276000000     6.585000000     1.733000000
O    -6.844000000     0.140000000    -1.176000000
H    -7.574000000    -0.290000000    -1.621000000
H    -6.407000000     0.643000000    -1.863000000
O    -3.182000000     9.250000000    -2.253000000
H    -3.540000000     9.664000000    -1.467000000
H    -2.734000000     8.469000000    -1.928000000
O    -2.058000000     1.186000000    -3.085000000
H    -3.007000000     1.249000000    -3.189000000
H    -1.935000000     0.889000000    -2.183000000
O    -8.589000000     3.225000000    -0.138000000
H    -7.719000000     3.055000000     0.223000000
H    -8.527000000     4.107000000    -0.506000000
