215
-1456.93897
C    -4.076000000    -2.902000000     1.067000000
H    -4.516000000    -2.115000000     0.459000000
C    -3.359000000    -2.684000000     2.234000000
C    -2.812000000    -3.794000000     2.926000000
H    -2.284000000    -3.688000000     3.871000000
C    -3.033000000    -1.374000000     2.845000000
O    -4.174000000    -0.513000000     2.679000000
H    -2.181000000    -0.949000000     2.293000000
O    -2.525000000    -1.391000000     4.182000000
C    -1.425000000    -0.634000000     4.410000000
C    -0.181000000    -1.196000000     4.549000000
H    -0.233000000    -2.273000000     4.687000000
C     0.960000000    -0.415000000     4.600000000
O     2.098000000    -1.000000000     4.370000000
C     0.894000000     0.969000000     4.768000000
C     2.085000000     1.941000000     4.835000000
H     1.869000000     2.846000000     5.406000000
C     2.592000000     2.358000000     3.415000000
C     2.154000000     3.489000000     2.748000000
H     1.530000000     4.240000000     3.226000000
H     2.914000000     1.469000000     5.365000000
C    -0.412000000     1.506000000     4.683000000
H    -0.520000000     2.588000000     4.691000000
C    -1.563000000     0.761000000     4.410000000
C    -2.950000000     1.374000000     4.442000000
H    -2.982000000     2.295000000     5.029000000
H    -3.680000000     0.760000000     4.973000000
C    -3.422000000     1.716000000     3.074000000
C    -3.157000000     2.981000000     2.582000000
H    -2.597000000     3.671000000     3.208000000
C    -4.116000000     0.786000000     2.240000000
C    -4.384000000     1.142000000     0.945000000
H    -4.895000000     0.402000000     0.335000000
C    -3.993000000     2.367000000     0.475000000
O    -4.278000000     2.681000000    -0.864000000
C    -3.159000000     2.460000000    -1.783000000
C    -3.392000000     1.772000000    -3.127000000
C    -2.647000000     2.034000000    -4.260000000
H    -1.850000000     2.773000000    -4.252000000
C    -4.407000000     0.788000000    -3.078000000
H    -4.981000000     0.509000000    -2.198000000
O    -2.629000000     3.749000000    -2.022000000
H    -2.412000000     1.795000000    -1.325000000
C    -3.367000000     3.314000000     1.240000000
C    -2.961000000     4.599000000     0.739000000
H    -2.791000000     5.201000000     1.634000000
H    -3.753000000     5.066000000     0.151000000
C    -1.610000000     4.581000000     0.048000000
C    -0.400000000     4.901000000     0.689000000
H    -0.404000000     5.286000000     1.705000000
C    -1.554000000     4.191000000    -1.333000000
C    -0.356000000     4.051000000    -1.952000000
H    -0.313000000     3.718000000    -2.986000000
C     0.844000000     4.220000000    -1.255000000
O     2.053000000     3.889000000    -1.866000000
C     2.728000000     2.671000000    -1.395000000
C     3.333000000     1.790000000    -2.537000000
C     2.598000000     1.697000000    -3.708000000
H     1.660000000     2.229000000    -3.847000000
C     4.444000000     1.023000000    -2.385000000
H     5.032000000     1.203000000    -1.488000000
O     3.762000000     3.023000000    -0.478000000
H     2.021000000     1.915000000    -1.021000000
C     0.817000000     4.759000000     0.039000000
C     2.111000000     5.079000000     0.724000000
H     2.128000000     5.868000000     1.479000000
H     2.806000000     5.353000000    -0.073000000
C     2.568000000     3.774000000     1.454000000
C     3.428000000     2.880000000     0.810000000
C     3.889000000     1.745000000     1.471000000
H     4.506000000     0.971000000     1.022000000
C     3.455000000     1.460000000     2.743000000
O     3.763000000     0.247000000     3.243000000
C     2.756000000    -0.748000000     3.063000000
H     1.980000000    -0.322000000     2.410000000
C     3.431000000    -2.060000000     2.520000000
C     2.545000000    -3.092000000     2.246000000
H     1.533000000    -2.982000000     2.627000000
C     4.694000000    -2.086000000     2.087000000
H     5.328000000    -1.214000000     2.224000000
C     5.099000000    -3.158000000     1.321000000
O     6.402000000    -3.235000000     0.768000000
C     4.226000000    -4.167000000     0.974000000
H     4.597000000    -4.907000000     0.269000000
C     2.935000000    -4.189000000     1.521000000
O     2.031000000    -5.131000000     1.300000000
C     1.258000000    -5.665000000     2.322000000
C    -0.126000000    -5.660000000     2.127000000
H    -0.639000000    -5.303000000     1.238000000
C     1.726000000    -6.133000000     3.628000000
H     2.791000000    -6.060000000     3.831000000
C     0.914000000    -6.697000000     4.534000000
H     1.346000000    -6.961000000     5.496000000
C    -0.471000000    -6.763000000     4.266000000
H    -1.110000000    -7.155000000     5.053000000
C    -0.966000000    -6.255000000     3.083000000
O    -2.368000000    -6.261000000     2.921000000
C    -3.033000000    -5.132000000     2.430000000
C    -3.803000000    -5.306000000     1.256000000
H    -3.951000000    -6.329000000     0.919000000
C    -4.352000000    -4.199000000     0.597000000
O    -4.882000000    -4.375000000    -0.773000000
C    -5.595000000    -3.352000000    -1.357000000
C    -5.229000000    -2.629000000    -2.518000000
H    -4.344000000    -2.871000000    -3.102000000
C    -6.768000000    -2.970000000    -0.688000000
H    -7.099000000    -3.539000000     0.177000000
C    -7.636000000    -2.042000000    -1.225000000
H    -8.556000000    -1.812000000    -0.695000000
C    -7.317000000    -1.329000000    -2.429000000
H    -7.962000000    -0.574000000    -2.870000000
C    -6.029000000    -1.596000000    -3.036000000
O    -5.594000000    -0.938000000    -4.187000000
C    -4.686000000     0.086000000    -4.228000000
C    -3.990000000     0.345000000    -5.401000000
H    -4.168000000    -0.258000000    -6.287000000
C    -2.975000000     1.265000000    -5.403000000
O    -2.252000000     1.418000000    -6.560000000
C    -1.010000000     1.960000000    -6.616000000
C     0.036000000     1.226000000    -6.165000000
H    -0.159000000     0.192000000    -5.889000000
C    -0.837000000     3.196000000    -7.199000000
H    -1.697000000     3.787000000    -7.503000000
C     0.453000000     3.691000000    -7.312000000
H     0.615000000     4.669000000    -7.758000000
C     1.566000000     2.930000000    -6.905000000
H     2.587000000     3.262000000    -7.073000000
C     1.316000000     1.695000000    -6.248000000
O     2.349000000     0.845000000    -5.905000000
C     3.064000000     0.883000000    -4.715000000
C     4.155000000     0.059000000    -4.537000000
H     4.514000000    -0.649000000    -5.279000000
C     4.921000000     0.192000000    -3.414000000
O     6.067000000    -0.560000000    -3.221000000
C     6.600000000    -0.785000000    -1.983000000
C     7.628000000     0.067000000    -1.524000000
H     8.028000000     0.821000000    -2.197000000
C     8.169000000    -0.119000000    -0.229000000
H     8.948000000     0.475000000     0.242000000
C     7.825000000    -1.279000000     0.489000000
H     8.320000000    -1.571000000     1.412000000
C     6.822000000    -2.114000000    -0.002000000
C     6.240000000    -1.904000000    -1.285000000
H     5.505000000    -2.614000000    -1.655000000
C    -1.161000000    -1.536000000    -0.656000000
H    -2.170000000    -1.892000000    -0.849000000
C    -0.989000000    -0.248000000    -0.114000000
H    -1.855000000     0.354000000     0.152000000
C     0.304000000     0.294000000     0.111000000
H     0.332000000     1.323000000     0.508000000
C     1.378000000    -0.456000000    -0.221000000
H     2.356000000     0.005000000    -0.101000000
C     1.198000000    -1.703000000    -0.819000000
H     2.049000000    -2.239000000    -1.232000000
C    -0.040000000    -2.270000000    -0.951000000
C    -0.268000000    -3.564000000    -1.637000000
O     0.663000000    -4.092000000    -2.259000000
O    -1.463000000    -3.965000000    -1.755000000
O     2.237000000    -6.054000000    -1.907000000
H     1.593000000    -5.348000000    -1.867000000
H     3.029000000    -5.637000000    -2.246000000
O    -3.178000000    -7.180000000    -4.520000000
H    -3.761000000    -7.425000000    -3.801000000
H    -3.762000000    -7.041000000    -5.265000000
O     5.052000000    -5.092000000    -2.582000000
H     5.384000000    -4.483000000    -3.242000000
H     5.593000000    -5.875000000    -2.687000000
O     2.229000000    -2.265000000    -6.928000000
H     2.340000000    -2.649000000    -6.058000000
H     3.121000000    -2.076000000    -7.221000000
O    -4.968000000    -6.998000000    -1.645000000
H    -5.736000000    -6.592000000    -2.047000000
H    -4.342000000    -6.280000000    -1.544000000
O    -0.625000000    -2.160000000    -7.013000000
H    -0.947000000    -2.523000000    -6.188000000
H     0.318000000    -2.323000000    -6.994000000
O     1.134000000    -7.348000000    -4.386000000
H     1.526000000    -6.723000000    -3.777000000
H     1.030000000    -8.150000000    -3.873000000
O     2.444000000    -3.825000000    -4.607000000
H     3.210000000    -4.286000000    -4.264000000
H     1.858000000    -3.742000000    -3.855000000
O    -0.735000000    -5.228000000    -5.037000000
H    -0.157000000    -5.981000000    -4.913000000
H    -0.534000000    -4.649000000    -4.301000000
O    -1.209000000    -9.091000000    -5.336000000
H    -0.421000000    -8.598000000    -5.564000000
H    -1.873000000    -8.420000000    -5.173000000
O     2.226000000    -5.814000000    -7.086000000
H     1.790000000    -5.004000000    -6.821000000
H     2.567000000    -6.180000000    -6.271000000
O     0.382000000   -10.650000000    -0.828000000
H     0.277000000   -11.017000000     0.050000000
H     0.647000000    -9.743000000    -0.678000000
O     3.398000000    -7.849000000     0.024000000
H     3.667000000    -7.251000000    -0.673000000
H     2.592000000    -7.466000000     0.371000000
O    -3.334000000    -9.287000000    -0.288000000
H    -3.405000000   -10.154000000    -0.686000000
H    -3.545000000    -8.680000000    -0.997000000
O     0.563000000    -8.041000000    -1.281000000
H    -0.242000000    -7.629000000    -1.595000000
H     1.244000000    -7.387000000    -1.435000000
O    -1.568000000    -6.576000000    -2.361000000
H    -2.280000000    -6.705000000    -2.986000000
H    -1.578000000    -5.636000000    -2.177000000
O    -1.487000000    -2.177000000    -4.474000000
H    -1.413000000    -1.370000000    -3.966000000
H    -1.794000000    -2.829000000    -3.844000000
O    -3.047000000    -4.297000000    -6.144000000
H    -3.117000000    -3.547000000    -5.555000000
H    -2.222000000    -4.717000000    -5.900000000
O    -0.921000000    -8.719000000     1.190000000
H    -1.625000000    -9.148000000     0.704000000
H    -0.370000000    -8.324000000     0.515000000
