215
-1483.63457
C    -3.689000000    -3.735000000     1.905000000
H    -4.452000000    -2.981000000     1.734000000
C    -2.624000000    -3.426000000     2.774000000
C    -1.662000000    -4.404000000     3.181000000
H    -0.862000000    -4.130000000     3.864000000
C    -2.402000000    -1.940000000     3.190000000
O    -3.641000000    -1.185000000     3.366000000
H    -1.909000000    -1.472000000     2.325000000
O    -1.602000000    -1.839000000     4.331000000
C    -0.627000000    -0.859000000     4.406000000
C     0.714000000    -1.212000000     4.215000000
H     0.960000000    -2.244000000     3.978000000
C     1.733000000    -0.313000000     4.279000000
O     2.955000000    -0.709000000     3.792000000
C     1.432000000     1.005000000     4.540000000
C     2.535000000     2.040000000     4.541000000
H     2.356000000     2.748000000     5.353000000
C     2.636000000     2.725000000     3.211000000
C     1.823000000     3.803000000     2.760000000
H     1.114000000     4.148000000     3.508000000
H     3.456000000     1.628000000     4.958000000
C     0.103000000     1.368000000     4.850000000
H    -0.150000000     2.425000000     4.865000000
C    -0.996000000     0.459000000     4.725000000
C    -2.392000000     0.912000000     4.934000000
H    -2.524000000     1.857000000     5.466000000
H    -2.862000000     0.215000000     5.632000000
C    -3.107000000     1.104000000     3.590000000
C    -3.186000000     2.427000000     3.057000000
H    -2.649000000     3.237000000     3.543000000
C    -3.721000000     0.113000000     2.882000000
C    -4.385000000     0.374000000     1.673000000
H    -4.720000000    -0.440000000     1.035000000
C    -4.449000000     1.642000000     1.204000000
O    -4.763000000     1.812000000    -0.114000000
C    -3.608000000     1.722000000    -0.965000000
C    -3.759000000     0.832000000    -2.238000000
C    -3.043000000     1.039000000    -3.420000000
H    -2.376000000     1.894000000    -3.494000000
C    -4.488000000    -0.307000000    -2.088000000
H    -4.971000000    -0.522000000    -1.138000000
O    -3.343000000     3.037000000    -1.401000000
H    -2.688000000     1.335000000    -0.502000000
C    -3.850000000     2.712000000     1.896000000
C    -3.679000000     4.101000000     1.243000000
H    -3.761000000     4.877000000     2.007000000
H    -4.523000000     4.410000000     0.623000000
C    -2.415000000     4.227000000     0.477000000
C    -1.304000000     4.788000000     1.090000000
H    -1.267000000     5.037000000     2.147000000
C    -2.310000000     3.654000000    -0.832000000
C    -1.140000000     3.765000000    -1.524000000
H    -1.090000000     3.314000000    -2.511000000
C    -0.061000000     4.409000000    -0.980000000
O     1.012000000     4.614000000    -1.794000000
C     2.012000000     3.632000000    -1.668000000
C     2.630000000     3.173000000    -2.944000000
C     1.917000000     3.324000000    -4.139000000
H     0.947000000     3.807000000    -4.046000000
C     3.870000000     2.585000000    -2.964000000
H     4.472000000     2.512000000    -2.062000000
O     2.998000000     4.219000000    -0.747000000
H     1.594000000     2.751000000    -1.160000000
C    -0.159000000     4.921000000     0.351000000
C     1.100000000     5.491000000     1.033000000
H     0.788000000     6.106000000     1.880000000
H     1.701000000     6.110000000     0.364000000
C     1.999000000     4.338000000     1.492000000
C     2.883000000     3.788000000     0.520000000
C     3.579000000     2.663000000     0.955000000
H     4.232000000     2.165000000     0.242000000
C     3.414000000     2.068000000     2.234000000
O     4.044000000     0.855000000     2.379000000
C     3.233000000    -0.330000000     2.411000000
H     2.312000000    -0.051000000     1.880000000
C     3.856000000    -1.533000000     1.637000000
C     3.147000000    -2.698000000     1.589000000
H     2.198000000    -2.789000000     2.112000000
C     5.027000000    -1.366000000     0.885000000
H     5.668000000    -0.498000000     1.016000000
C     5.409000000    -2.270000000    -0.102000000
O     6.475000000    -2.038000000    -0.964000000
C     4.732000000    -3.482000000    -0.146000000
H     5.070000000    -4.126000000    -0.954000000
C     3.595000000    -3.708000000     0.689000000
O     2.827000000    -4.857000000     0.435000000
C     2.336000000    -5.600000000     1.465000000
C     0.940000000    -5.700000000     1.697000000
H     0.214000000    -5.125000000     1.127000000
C     3.204000000    -6.333000000     2.255000000
H     4.272000000    -6.184000000     2.120000000
C     2.741000000    -7.197000000     3.301000000
H     3.478000000    -7.725000000     3.901000000
C     1.359000000    -7.254000000     3.552000000
H     0.988000000    -7.957000000     4.293000000
C     0.471000000    -6.465000000     2.723000000
O    -0.864000000    -6.629000000     3.012000000
C    -1.865000000    -5.746000000     2.715000000
C    -2.926000000    -6.061000000     1.866000000
H    -3.170000000    -7.058000000     1.509000000
C    -3.907000000    -5.081000000     1.571000000
O    -4.908000000    -5.463000000     0.684000000
C    -5.665000000    -4.595000000    -0.075000000
C    -5.020000000    -3.890000000    -1.047000000
H    -3.953000000    -4.067000000    -1.163000000
C    -7.050000000    -4.459000000     0.113000000
H    -7.571000000    -5.025000000     0.880000000
C    -7.761000000    -3.567000000    -0.725000000
H    -8.810000000    -3.379000000    -0.509000000
C    -7.106000000    -2.841000000    -1.704000000
H    -7.691000000    -2.178000000    -2.336000000
C    -5.714000000    -2.963000000    -1.891000000
O    -5.139000000    -2.471000000    -3.072000000
C    -4.507000000    -1.233000000    -3.163000000
C    -3.676000000    -1.052000000    -4.260000000
H    -3.551000000    -1.826000000    -5.013000000
C    -2.981000000     0.144000000    -4.445000000
O    -2.095000000     0.208000000    -5.521000000
C    -1.610000000     1.354000000    -6.073000000
C    -0.255000000     1.479000000    -6.032000000
H     0.378000000     0.755000000    -5.524000000
C    -2.439000000     2.316000000    -6.656000000
H    -3.509000000     2.204000000    -6.817000000
C    -1.873000000     3.534000000    -6.998000000
H    -2.493000000     4.344000000    -7.375000000
C    -0.501000000     3.695000000    -6.942000000
H     0.094000000     4.545000000    -7.267000000
C     0.328000000     2.677000000    -6.464000000
O     1.690000000     2.862000000    -6.500000000
C     2.437000000     2.807000000    -5.325000000
C     3.682000000     2.134000000    -5.289000000
H     4.120000000     1.755000000    -6.209000000
C     4.402000000     2.013000000    -4.115000000
O     5.679000000     1.486000000    -4.063000000
C     6.277000000     1.011000000    -2.888000000
C     7.386000000     1.711000000    -2.541000000
H     7.637000000     2.695000000    -2.931000000
C     8.166000000     1.163000000    -1.441000000
H     9.003000000     1.738000000    -1.053000000
C     7.791000000    -0.080000000    -0.862000000
H     8.267000000    -0.467000000     0.036000000
C     6.702000000    -0.746000000    -1.434000000
C     5.931000000    -0.242000000    -2.434000000
H     5.238000000    -0.848000000    -3.012000000
C    -0.141000000    -2.326000000    -1.212000000
H    -0.970000000    -3.029000000    -1.217000000
C    -0.115000000    -1.282000000    -0.250000000
H    -0.897000000    -1.289000000     0.505000000
C     0.792000000    -0.297000000    -0.381000000
H     0.722000000     0.576000000     0.324000000
C     1.789000000    -0.263000000    -1.353000000
H     2.448000000     0.590000000    -1.491000000
C     1.844000000    -1.342000000    -2.249000000
H     2.515000000    -1.264000000    -3.100000000
C     0.837000000    -2.357000000    -2.209000000
C     0.765000000    -3.368000000    -3.358000000
O     1.658000000    -3.422000000    -4.153000000
O    -0.173000000    -4.138000000    -3.448000000
O     3.923000000    -4.668000000    -4.460000000
H     3.906000000    -4.895000000    -5.389000000
H     3.197000000    -4.055000000    -4.349000000
O    -0.781000000    -7.431000000    -5.997000000
H    -1.672000000    -7.607000000    -5.695000000
H    -0.896000000    -6.966000000    -6.826000000
O     3.193000000    -7.924000000    -6.431000000
H     2.611000000    -7.177000000    -6.572000000
H     2.753000000    -8.446000000    -5.760000000
O     2.246000000    -1.547000000    -5.998000000
H     2.941000000    -2.112000000    -6.335000000
H     2.011000000    -1.933000000    -5.154000000
O     1.368000000    -2.675000000    -8.694000000
H     2.057000000    -2.572000000    -8.039000000
H     1.630000000    -2.097000000    -9.411000000
O    -2.088000000    -5.611000000    -2.287000000
H    -1.470000000    -4.908000000    -2.489000000
H    -1.565000000    -6.411000000    -2.333000000
O     4.373000000    -2.530000000    -7.538000000
H     5.329000000    -2.564000000    -7.561000000
H     4.106000000    -3.429000000    -7.345000000
O     3.782000000    -5.092000000    -7.544000000
H     2.985000000    -5.402000000    -7.114000000
H     4.179000000    -5.882000000    -7.911000000
O     2.715000000    -7.928000000    -3.229000000
H     3.097000000    -8.559000000    -2.618000000
H     2.371000000    -7.231000000    -2.670000000
O     6.451000000    -4.034000000    -3.781000000
H     6.802000000    -4.826000000    -3.373000000
H     5.515000000    -4.209000000    -3.878000000
O    -2.024000000    -1.369000000    -9.272000000
H    -1.764000000    -1.361000000    -8.351000000
H    -2.977000000    -1.279000000    -9.253000000
O     1.077000000    -6.131000000    -1.850000000
H     0.660000000    -5.452000000    -2.381000000
H     1.435000000    -5.661000000    -1.097000000
O     1.630000000    -5.612000000    -5.713000000
H     1.629000000    -4.869000000    -5.109000000
H     0.811000000    -6.071000000    -5.529000000
O    -1.441000000    -4.201000000    -5.742000000
H    -0.894000000    -3.459000000    -6.000000000
H    -1.049000000    -4.515000000    -4.927000000
O    -4.532000000    -5.676000000    -4.136000000
H    -5.125000000    -5.230000000    -3.531000000
H    -3.685000000    -5.669000000    -3.690000000
O     0.851000000    -8.720000000    -0.415000000
H     0.640000000    -7.902000000    -0.865000000
H     0.395000000    -9.395000000    -0.917000000
O     0.007000000    -8.490000000    -3.779000000
H    -0.078000000    -8.187000000    -4.683000000
H     0.944000000    -8.435000000    -3.594000000
O    -3.916000000    -4.871000000    -6.730000000
H    -4.293000000    -5.218000000    -5.922000000
H    -2.994000000    -4.723000000    -6.519000000
O    -0.605000000    -1.482000000    -6.982000000
H     0.343000000    -1.497000000    -6.849000000
H    -0.968000000    -1.359000000    -6.105000000
