215
-1464.40069
C    -2.176000000    -1.565000000    -5.003000000
H    -1.382000000    -2.295000000    -5.144000000
C    -1.889000000    -0.247000000    -4.534000000
C    -2.974000000     0.592000000    -4.382000000
H    -2.721000000     1.621000000    -4.141000000
C    -0.449000000     0.179000000    -4.209000000
O     0.475000000    -0.594000000    -4.917000000
H    -0.206000000    -0.026000000    -3.156000000
O    -0.121000000     1.556000000    -4.494000000
C     0.701000000     2.349000000    -3.713000000
C     0.026000000     3.193000000    -2.814000000
H    -1.051000000     3.131000000    -2.947000000
C     0.750000000     3.922000000    -1.894000000
O     0.052000000     4.671000000    -1.009000000
C     2.138000000     3.954000000    -1.933000000
C     3.003000000     4.814000000    -0.994000000
H     3.996000000     5.125000000    -1.323000000
C     2.986000000     4.022000000     0.338000000
C     3.976000000     3.064000000     0.511000000
H     4.772000000     3.113000000    -0.227000000
H     2.541000000     5.775000000    -0.756000000
C     2.837000000     3.111000000    -2.831000000
H     3.919000000     3.123000000    -2.930000000
C     2.087000000     2.348000000    -3.752000000
C     2.770000000     1.314000000    -4.686000000
H     3.831000000     1.569000000    -4.680000000
H     2.418000000     1.464000000    -5.709000000
C     2.744000000    -0.148000000    -4.174000000
C     3.767000000    -0.611000000    -3.362000000
H     4.585000000     0.081000000    -3.175000000
C     1.600000000    -1.033000000    -4.306000000
C     1.603000000    -2.286000000    -3.720000000
H     0.753000000    -2.964000000    -3.743000000
C     2.707000000    -2.734000000    -2.975000000
O     2.466000000    -3.869000000    -2.235000000
C     2.090000000    -3.654000000    -0.802000000
C     0.947000000    -4.645000000    -0.487000000
C     0.733000000    -5.096000000     0.818000000
H     1.372000000    -4.752000000     1.626000000
C    -0.076000000    -4.867000000    -1.449000000
H     0.007000000    -4.547000000    -2.485000000
O     3.233000000    -3.787000000     0.159000000
H     1.609000000    -2.667000000    -0.727000000
C     3.724000000    -1.829000000    -2.654000000
C     4.806000000    -2.206000000    -1.675000000
H     5.737000000    -1.741000000    -2.004000000
H     4.976000000    -3.284000000    -1.721000000
C     4.493000000    -1.835000000    -0.241000000
C     4.842000000    -0.532000000     0.175000000
H     5.296000000     0.141000000    -0.548000000
C     3.719000000    -2.648000000     0.589000000
C     3.530000000    -2.266000000     1.919000000
H     2.906000000    -2.833000000     2.605000000
C     3.875000000    -0.966000000     2.344000000
O     3.460000000    -0.496000000     3.591000000
C     2.368000000     0.513000000     3.591000000
C     1.284000000     0.170000000     4.576000000
C     0.833000000    -1.157000000     4.585000000
H     1.362000000    -1.865000000     3.953000000
C     0.626000000     1.149000000     5.321000000
H     0.837000000     2.215000000     5.314000000
O     3.089000000     1.742000000     3.875000000
H     1.962000000     0.639000000     2.577000000
C     4.527000000    -0.111000000     1.457000000
C     5.097000000     1.243000000     1.839000000
H     5.969000000     1.557000000     1.262000000
H     5.459000000     1.142000000     2.865000000
C     4.049000000     2.384000000     1.745000000
C     3.149000000     2.625000000     2.731000000
C     2.068000000     3.504000000     2.502000000
H     1.229000000     3.546000000     3.192000000
C     1.974000000     4.171000000     1.300000000
O     0.802000000     4.853000000     1.138000000
C    -0.116000000     4.107000000     0.338000000
H     0.120000000     3.032000000     0.356000000
C    -1.601000000     4.103000000     0.832000000
C    -2.706000000     3.763000000     0.001000000
H    -2.452000000     3.527000000    -1.029000000
C    -1.836000000     4.353000000     2.223000000
H    -1.017000000     4.754000000     2.814000000
C    -3.087000000     4.272000000     2.767000000
O    -3.344000000     4.557000000     4.066000000
C    -4.179000000     3.982000000     1.962000000
H    -5.174000000     3.943000000     2.397000000
C    -4.010000000     3.702000000     0.577000000
O    -5.074000000     3.102000000    -0.078000000
C    -5.255000000     3.267000000    -1.459000000
C    -5.311000000     2.105000000    -2.284000000
H    -5.248000000     1.073000000    -1.950000000
C    -5.456000000     4.542000000    -2.055000000
H    -5.453000000     5.454000000    -1.464000000
C    -5.620000000     4.669000000    -3.422000000
H    -5.736000000     5.664000000    -3.846000000
C    -5.421000000     3.570000000    -4.210000000
H    -5.497000000     3.651000000    -5.292000000
C    -5.316000000     2.265000000    -3.690000000
O    -5.384000000     1.135000000    -4.473000000
C    -4.279000000     0.238000000    -4.695000000
C    -4.498000000    -0.988000000    -5.274000000
H    -5.506000000    -1.237000000    -5.593000000
C    -3.504000000    -1.949000000    -5.346000000
O    -3.766000000    -3.250000000    -5.667000000
C    -2.989000000    -4.311000000    -5.141000000
C    -2.929000000    -4.521000000    -3.790000000
H    -3.504000000    -3.967000000    -3.052000000
C    -2.372000000    -5.162000000    -6.062000000
H    -2.502000000    -4.958000000    -7.122000000
C    -1.584000000    -6.216000000    -5.629000000
H    -1.074000000    -6.938000000    -6.261000000
C    -1.533000000    -6.491000000    -4.234000000
H    -0.829000000    -7.276000000    -3.970000000
C    -2.252000000    -5.695000000    -3.381000000
O    -2.234000000    -5.956000000    -2.052000000
C    -1.260000000    -5.640000000    -1.167000000
C    -1.298000000    -6.231000000     0.119000000
H    -2.125000000    -6.822000000     0.505000000
C    -0.359000000    -5.912000000     1.161000000
O    -0.454000000    -6.374000000     2.465000000
C    -0.037000000    -5.621000000     3.526000000
C    -0.721000000    -4.495000000     3.976000000
H    -1.608000000    -4.133000000     3.463000000
C     1.003000000    -6.132000000     4.310000000
H     1.436000000    -7.075000000     3.987000000
C     1.516000000    -5.370000000     5.393000000
H     2.252000000    -5.709000000     6.117000000
C     0.903000000    -4.199000000     5.752000000
H     1.229000000    -3.638000000     6.624000000
C    -0.232000000    -3.789000000     5.102000000
O    -0.867000000    -2.627000000     5.485000000
C    -0.255000000    -1.442000000     5.410000000
C    -0.728000000    -0.532000000     6.308000000
H    -1.682000000    -0.666000000     6.812000000
C    -0.375000000     0.759000000     6.166000000
O    -0.980000000     1.731000000     6.973000000
C    -1.192000000     3.010000000     6.494000000
C    -0.582000000     4.118000000     7.094000000
H     0.025000000     3.908000000     7.970000000
C    -0.918000000     5.374000000     6.662000000
H    -0.514000000     6.299000000     7.066000000
C    -1.854000000     5.481000000     5.686000000
H    -2.259000000     6.421000000     5.322000000
C    -2.439000000     4.406000000     5.078000000
C    -2.062000000     3.145000000     5.491000000
H    -2.474000000     2.280000000     4.976000000
C    -1.052000000    -1.422000000     1.581000000
H    -1.198000000    -2.198000000     2.328000000
C     0.276000000    -1.100000000     1.201000000
H     1.046000000    -1.537000000     1.831000000
C     0.418000000    -0.127000000     0.205000000
H     1.397000000     0.322000000     0.015000000
C    -0.684000000     0.270000000    -0.526000000
H    -0.527000000     0.988000000    -1.327000000
C    -1.980000000    -0.001000000    -0.071000000
H    -2.832000000     0.401000000    -0.613000000
C    -2.187000000    -0.881000000     1.002000000
C    -3.590000000    -1.355000000     1.390000000
O    -4.550000000    -0.965000000     0.754000000
O    -3.772000000    -1.926000000     2.452000000
O    -5.635000000     1.380000000     2.539000000
H    -6.053000000     0.742000000     1.961000000
H    -4.913000000     1.737000000     2.020000000
O    -4.153000000    -4.743000000     1.973000000
H    -3.890000000    -3.832000000     2.098000000
H    -4.219000000    -5.098000000     2.860000000
O    -5.329000000    -4.143000000    -0.419000000
H    -5.713000000    -3.524000000     0.202000000
H    -4.736000000    -4.677000000     0.110000000
O    -2.425000000    -5.334000000     6.506000000
H    -2.309000000    -4.879000000     7.340000000
H    -2.748000000    -4.659000000     5.908000000
O    -8.799000000    -3.994000000     1.999000000
H    -8.177000000    -3.274000000     1.896000000
H    -8.254000000    -4.780000000     2.026000000
O    -6.000000000    -1.832000000    -1.644000000
H    -5.964000000    -2.753000000    -1.385000000
H    -5.411000000    -1.388000000    -1.033000000
O    -7.733000000     0.822000000     0.776000000
H    -8.120000000     0.385000000     1.535000000
H    -8.462000000     1.292000000     0.373000000
O    -7.159000000    -6.285000000     1.790000000
H    -7.335000000    -7.134000000     1.386000000
H    -6.420000000    -5.932000000     1.294000000
O    -4.468000000    -1.166000000     6.515000000
H    -4.042000000    -1.802000000     5.939000000
H    -4.237000000    -1.452000000     7.399000000
O    -6.943000000    -2.082000000     1.436000000
H    -7.061000000    -1.461000000     0.717000000
H    -6.060000000    -1.906000000     1.762000000
O    -8.800000000    -0.904000000     3.105000000
H    -8.077000000    -1.330000000     2.646000000
H    -8.406000000    -0.566000000     3.910000000
O    -5.046000000     1.510000000     5.245000000
H    -4.645000000     0.684000000     5.516000000
H    -4.950000000     1.522000000     4.293000000
O    -7.888000000    -0.425000000    -3.742000000
H    -7.285000000    -0.831000000    -3.120000000
H    -7.728000000     0.515000000    -3.653000000
O    -3.187000000    -6.854000000     4.083000000
H    -2.370000000    -6.679000000     3.616000000
H    -2.974000000    -6.704000000     5.004000000
O    -5.930000000    -4.707000000     4.462000000
H    -6.523000000    -4.141000000     4.956000000
H    -6.500000000    -5.372000000     4.075000000
O    -5.929000000    -5.196000000    -3.012000000
H    -5.284000000    -5.756000000    -3.443000000
H    -5.566000000    -5.041000000    -2.139000000
O    -7.046000000    -2.330000000     6.256000000
H    -6.174000000    -1.950000000     6.362000000
H    -7.593000000    -1.852000000     6.879000000
O    -7.808000000     0.891000000     4.963000000
H    -6.912000000     1.068000000     4.678000000
H    -8.207000000     1.757000000     5.049000000
O    -3.760000000    -3.275000000     4.789000000
H    -3.746000000    -2.735000000     4.000000000
H    -4.507000000    -3.861000000     4.665000000
