215
-1456.89616
C    -4.330000000    -3.355000000     1.423000000
H    -4.876000000    -2.487000000     1.064000000
C    -3.393000000    -3.195000000     2.491000000
C    -2.605000000    -4.322000000     2.867000000
H    -1.848000000    -4.235000000     3.642000000
C    -2.866000000    -1.824000000     2.898000000
O    -3.961000000    -0.900000000     2.914000000
H    -2.228000000    -1.547000000     2.046000000
O    -2.234000000    -1.822000000     4.154000000
C    -1.134000000    -1.082000000     4.368000000
C     0.146000000    -1.634000000     4.189000000
H     0.204000000    -2.646000000     3.798000000
C     1.256000000    -0.817000000     4.162000000
O     2.417000000    -1.404000000     3.872000000
C     1.119000000     0.520000000     4.521000000
C     2.360000000     1.389000000     4.712000000
H     2.155000000     2.242000000     5.361000000
C     2.808000000     2.024000000     3.388000000
C     2.376000000     3.283000000     2.943000000
H     1.592000000     3.740000000     3.542000000
H     3.183000000     0.834000000     5.167000000
C    -0.191000000     1.068000000     4.865000000
H    -0.402000000     2.033000000     5.318000000
C    -1.277000000     0.255000000     4.714000000
C    -2.639000000     0.915000000     4.864000000
H    -2.655000000     1.784000000     5.524000000
H    -3.379000000     0.237000000     5.294000000
C    -3.053000000     1.353000000     3.479000000
C    -2.796000000     2.692000000     3.112000000
H    -2.312000000     3.355000000     3.824000000
C    -3.687000000     0.449000000     2.597000000
C    -4.188000000     0.897000000     1.378000000
H    -4.750000000     0.247000000     0.711000000
C    -3.937000000     2.176000000     0.934000000
O    -4.203000000     2.360000000    -0.425000000
C    -3.098000000     2.558000000    -1.281000000
C    -3.339000000     1.803000000    -2.520000000
C    -2.979000000     2.273000000    -3.776000000
H    -2.561000000     3.269000000    -3.896000000
C    -4.018000000     0.532000000    -2.514000000
H    -4.389000000     0.235000000    -1.537000000
O    -2.716000000     3.885000000    -1.361000000
H    -2.241000000     2.002000000    -0.872000000
C    -3.207000000     3.048000000     1.778000000
C    -2.885000000     4.520000000     1.363000000
H    -2.820000000     5.131000000     2.266000000
H    -3.728000000     4.957000000     0.822000000
C    -1.603000000     4.626000000     0.618000000
C    -0.438000000     5.039000000     1.244000000
H    -0.447000000     5.294000000     2.301000000
C    -1.616000000     4.387000000    -0.728000000
C    -0.403000000     4.375000000    -1.426000000
H    -0.335000000     4.104000000    -2.476000000
C     0.793000000     4.751000000    -0.818000000
O     1.987000000     4.565000000    -1.477000000
C     2.742000000     3.382000000    -1.349000000
C     3.261000000     2.882000000    -2.703000000
C     2.431000000     2.892000000    -3.768000000
H     1.477000000     3.393000000    -3.621000000
C     4.498000000     2.237000000    -2.750000000
H     5.132000000     2.192000000    -1.868000000
O     3.841000000     3.577000000    -0.406000000
H     2.124000000     2.545000000    -0.992000000
C     0.780000000     5.059000000     0.509000000
C     2.097000000     5.122000000     1.326000000
H     1.940000000     5.758000000     2.200000000
H     2.843000000     5.674000000     0.751000000
C     2.623000000     3.802000000     1.708000000
C     3.533000000     3.134000000     0.889000000
C     3.990000000     1.888000000     1.245000000
H     4.651000000     1.259000000     0.654000000
C     3.617000000     1.309000000     2.506000000
O     3.939000000    -0.027000000     2.701000000
C     2.992000000    -1.095000000     2.582000000
H     2.240000000    -0.581000000     1.966000000
C     3.409000000    -2.298000000     1.736000000
C     2.842000000    -3.530000000     2.071000000
H     2.286000000    -3.596000000     3.003000000
C     4.179000000    -2.241000000     0.569000000
H     4.696000000    -1.292000000     0.457000000
C     4.482000000    -3.384000000    -0.163000000
O     5.265000000    -3.337000000    -1.285000000
C     3.761000000    -4.531000000     0.141000000
H     3.742000000    -5.440000000    -0.455000000
C     3.026000000    -4.644000000     1.283000000
O     2.411000000    -5.896000000     1.526000000
C     1.480000000    -6.329000000     2.479000000
C     0.134000000    -6.256000000     2.178000000
H    -0.236000000    -5.811000000     1.258000000
C     1.899000000    -6.828000000     3.723000000
H     2.936000000    -6.708000000     4.027000000
C     0.991000000    -7.288000000     4.623000000
H     1.408000000    -7.634000000     5.565000000
C    -0.348000000    -7.286000000     4.282000000
H    -1.077000000    -7.647000000     5.003000000
C    -0.820000000    -6.714000000     3.047000000
O    -2.159000000    -6.735000000     2.768000000
C    -2.834000000    -5.568000000     2.258000000
C    -3.707000000    -5.639000000     1.193000000
H    -3.916000000    -6.602000000     0.734000000
C    -4.436000000    -4.532000000     0.757000000
O    -5.436000000    -4.718000000    -0.224000000
C    -5.840000000    -3.720000000    -0.972000000
C    -5.072000000    -3.270000000    -2.057000000
H    -4.153000000    -3.781000000    -2.333000000
C    -7.087000000    -3.119000000    -0.729000000
H    -7.747000000    -3.576000000     0.004000000
C    -7.436000000    -1.850000000    -1.299000000
H    -8.270000000    -1.222000000    -0.998000000
C    -6.575000000    -1.352000000    -2.301000000
H    -6.656000000    -0.389000000    -2.798000000
C    -5.432000000    -2.093000000    -2.671000000
O    -4.623000000    -1.563000000    -3.646000000
C    -4.130000000    -0.241000000    -3.642000000
C    -3.557000000     0.214000000    -4.845000000
H    -3.635000000    -0.340000000    -5.776000000
C    -3.059000000     1.491000000    -4.928000000
O    -2.670000000     2.001000000    -6.161000000
C    -1.458000000     2.708000000    -6.401000000
C    -0.222000000     2.225000000    -6.098000000
H    -0.055000000     1.286000000    -5.576000000
C    -1.586000000     4.002000000    -6.905000000
H    -2.593000000     4.358000000    -7.108000000
C    -0.469000000     4.779000000    -7.221000000
H    -0.543000000     5.765000000    -7.671000000
C     0.799000000     4.201000000    -6.999000000
H     1.725000000     4.749000000    -7.153000000
C     0.907000000     2.984000000    -6.345000000
O     2.156000000     2.437000000    -6.122000000
C     2.914000000     2.381000000    -5.025000000
C     4.131000000     1.664000000    -5.042000000
H     4.386000000     1.172000000    -5.977000000
C     4.873000000     1.603000000    -3.851000000
O     5.968000000     0.705000000    -3.742000000
C     6.287000000    -0.082000000    -2.724000000
C     7.578000000     0.031000000    -2.249000000
H     8.186000000     0.886000000    -2.529000000
C     8.010000000    -0.913000000    -1.268000000
H     8.898000000    -0.680000000    -0.686000000
C     7.203000000    -2.039000000    -0.936000000
H     7.508000000    -2.705000000    -0.133000000
C     5.985000000    -2.191000000    -1.591000000
C     5.466000000    -1.144000000    -2.333000000
H     4.462000000    -1.207000000    -2.745000000
C    -0.054000000    -2.173000000    -0.614000000
H    -0.100000000    -3.245000000    -0.440000000
C    -0.018000000    -1.389000000     0.455000000
H     0.110000000    -1.964000000     1.369000000
C    -0.055000000    -0.028000000     0.319000000
H    -0.116000000     0.577000000     1.250000000
C    -0.035000000     0.529000000    -0.960000000
H     0.082000000     1.584000000    -1.192000000
C     0.141000000    -0.266000000    -2.064000000
H     0.222000000     0.168000000    -3.057000000
C     0.042000000    -1.640000000    -1.944000000
C     0.144000000    -2.536000000    -3.166000000
O     0.210000000    -2.154000000    -4.322000000
O     0.327000000    -3.703000000    -2.949000000
O     3.639000000    -6.433000000    -2.805000000
H     4.292000000    -6.365000000    -3.502000000
H     4.011000000    -7.063000000    -2.189000000
O    -1.813000000    -8.183000000    -5.390000000
H    -1.396000000    -7.363000000    -5.126000000
H    -1.389000000    -8.412000000    -6.217000000
O     1.399000000    -4.393000000    -5.604000000
H     1.155000000    -3.998000000    -4.767000000
H     1.490000000    -3.651000000    -6.201000000
O     1.294000000    -2.969000000    -8.336000000
H     1.063000000    -2.077000000    -8.596000000
H     1.813000000    -3.305000000    -9.067000000
O    -0.917000000    -4.562000000    -7.911000000
H    -0.261000000    -3.882000000    -8.068000000
H    -0.826000000    -4.772000000    -6.982000000
O    -0.928000000    -7.995000000    -2.158000000
H    -0.879000000    -7.247000000    -2.753000000
H    -1.296000000    -8.701000000    -2.690000000
O     2.418000000    -1.235000000    -5.639000000
H     1.999000000    -0.522000000    -6.121000000
H     1.719000000    -1.599000000    -5.096000000
O    -0.428000000    -6.076000000    -4.328000000
H     0.304000000    -5.898000000    -4.918000000
H    -0.400000000    -5.362000000    -3.691000000
O    -3.433000000    -2.807000000    -7.136000000
H    -3.078000000    -3.646000000    -6.841000000
H    -3.395000000    -2.854000000    -8.092000000
O     2.403000000    -6.467000000    -6.923000000
H     2.745000000    -6.304000000    -7.802000000
H     2.043000000    -5.624000000    -6.646000000
O     0.152000000    -0.403000000    -9.130000000
H     0.252000000     0.549000000    -9.119000000
H    -0.285000000    -0.608000000    -8.304000000
O    -5.021000000    -5.305000000    -5.936000000
H    -4.144000000    -4.964000000    -5.762000000
H    -5.400000000    -5.443000000    -5.068000000
O     1.991000000    -8.026000000    -4.762000000
H     2.365000000    -7.389000000    -4.153000000
H     1.960000000    -7.564000000    -5.600000000
O     1.404000000    -5.717000000    -1.414000000
H     2.142000000    -5.924000000    -1.987000000
H     1.071000000    -4.882000000    -1.743000000
O    -1.910000000    -5.037000000    -2.149000000
H    -1.821000000    -5.742000000    -1.508000000
H    -1.117000000    -4.513000000    -2.042000000
O    -0.857000000    -1.111000000    -6.582000000
H    -1.669000000    -1.607000000    -6.687000000
H    -0.584000000    -1.285000000    -5.681000000
O    -2.594000000    -4.294000000    -4.880000000
H    -1.894000000    -3.668000000    -4.695000000
H    -2.353000000    -5.076000000    -4.383000000
O     0.959000000    -8.360000000    -0.248000000
H     0.174000000    -8.459000000    -0.785000000
H     1.227000000    -7.451000000    -0.380000000
O     4.378000000    -3.146000000    -5.719000000
H     3.850000000    -2.350000000    -5.662000000
H     3.761000000    -3.856000000    -5.543000000
