215
-1478.53833
C    -4.103000000    -3.143000000     1.368000000
H    -4.734000000    -2.328000000     1.023000000
C    -3.124000000    -2.833000000     2.377000000
C    -2.336000000    -3.874000000     2.925000000
H    -1.658000000    -3.670000000     3.749000000
C    -2.946000000    -1.416000000     2.827000000
O    -4.164000000    -0.599000000     2.684000000
H    -2.182000000    -0.889000000     2.236000000
O    -2.509000000    -1.254000000     4.227000000
C    -1.552000000    -0.328000000     4.459000000
C    -0.271000000    -0.886000000     4.539000000
H    -0.116000000    -1.957000000     4.436000000
C     0.823000000    -0.046000000     4.614000000
O     2.057000000    -0.573000000     4.476000000
C     0.563000000     1.302000000     4.696000000
C     1.769000000     2.287000000     4.696000000
H     1.448000000     3.126000000     5.319000000
C     2.213000000     2.673000000     3.325000000
C     1.717000000     3.738000000     2.619000000
H     0.965000000     4.375000000     3.077000000
H     2.545000000     1.893000000     5.355000000
C    -0.728000000     1.847000000     4.555000000
H    -0.687000000     2.931000000     4.627000000
C    -1.840000000     1.063000000     4.497000000
C    -3.227000000     1.649000000     4.316000000
H    -3.208000000     2.660000000     4.728000000
H    -3.961000000     1.056000000     4.865000000
C    -3.573000000     1.790000000     2.814000000
C    -3.386000000     3.005000000     2.154000000
H    -2.987000000     3.847000000     2.713000000
C    -4.085000000     0.677000000     2.056000000
C    -4.429000000     0.778000000     0.710000000
H    -4.757000000    -0.024000000     0.053000000
C    -4.139000000     1.998000000     0.031000000
O    -4.330000000     1.987000000    -1.278000000
C    -3.146000000     1.948000000    -2.115000000
C    -3.370000000     1.068000000    -3.320000000
C    -2.742000000     1.268000000    -4.528000000
H    -2.110000000     2.152000000    -4.552000000
C    -4.169000000    -0.080000000    -3.124000000
H    -4.604000000    -0.313000000    -2.155000000
O    -2.818000000     3.287000000    -2.443000000
H    -2.286000000     1.453000000    -1.640000000
C    -3.656000000     3.088000000     0.794000000
C    -3.354000000     4.435000000     0.080000000
H    -3.459000000     5.229000000     0.822000000
H    -4.116000000     4.723000000    -0.647000000
C    -1.947000000     4.472000000    -0.562000000
C    -0.853000000     4.936000000     0.135000000
H    -0.977000000     5.493000000     1.060000000
C    -1.707000000     3.876000000    -1.815000000
C    -0.467000000     3.753000000    -2.349000000
H    -0.345000000     3.197000000    -3.275000000
C     0.642000000     4.221000000    -1.622000000
O     1.885000000     4.036000000    -2.107000000
C     2.628000000     2.934000000    -1.518000000
C     3.188000000     2.068000000    -2.620000000
C     2.484000000     1.788000000    -3.759000000
H     1.501000000     2.234000000    -3.885000000
C     4.451000000     1.464000000    -2.454000000
H     5.100000000     1.707000000    -1.617000000
O     3.619000000     3.342000000    -0.526000000
H     1.874000000     2.339000000    -0.981000000
C     0.481000000     4.792000000    -0.363000000
C     1.647000000     5.244000000     0.557000000
H     1.280000000     5.912000000     1.339000000
H     2.358000000     5.766000000    -0.087000000
C     2.159000000     4.030000000     1.309000000
C     3.206000000     3.237000000     0.769000000
C     3.701000000     2.159000000     1.502000000
H     4.506000000     1.565000000     1.076000000
C     3.194000000     1.895000000     2.755000000
O     3.620000000     0.669000000     3.303000000
C     2.701000000    -0.444000000     3.177000000
H     1.886000000    -0.153000000     2.499000000
C     3.411000000    -1.617000000     2.603000000
C     2.862000000    -2.882000000     2.918000000
H     2.138000000    -2.923000000     3.729000000
C     4.618000000    -1.525000000     1.814000000
H     4.960000000    -0.525000000     1.560000000
C     5.238000000    -2.699000000     1.352000000
O     6.418000000    -2.636000000     0.607000000
C     4.711000000    -3.945000000     1.685000000
H     5.155000000    -4.915000000     1.474000000
C     3.563000000    -4.024000000     2.458000000
O     3.068000000    -5.232000000     2.811000000
C     1.861000000    -5.358000000     3.475000000
C     0.686000000    -5.437000000     2.730000000
H     0.692000000    -5.244000000     1.661000000
C     1.904000000    -5.626000000     4.814000000
H     2.855000000    -5.510000000     5.328000000
C     0.746000000    -6.112000000     5.451000000
H     0.738000000    -6.277000000     6.526000000
C    -0.435000000    -6.379000000     4.647000000
H    -1.308000000    -6.802000000     5.138000000
C    -0.474000000    -5.888000000     3.359000000
O    -1.642000000    -6.222000000     2.724000000
C    -2.586000000    -5.195000000     2.405000000
C    -3.576000000    -5.479000000     1.428000000
H    -3.888000000    -6.420000000     0.982000000
C    -4.271000000    -4.377000000     0.857000000
O    -5.241000000    -4.593000000    -0.081000000
C    -5.827000000    -3.578000000    -0.824000000
C    -5.219000000    -3.240000000    -2.052000000
H    -4.275000000    -3.644000000    -2.409000000
C    -7.005000000    -2.968000000    -0.444000000
H    -7.443000000    -3.122000000     0.539000000
C    -7.605000000    -2.021000000    -1.280000000
H    -8.508000000    -1.467000000    -1.037000000
C    -7.002000000    -1.734000000    -2.504000000
H    -7.342000000    -0.938000000    -3.161000000
C    -5.849000000    -2.367000000    -2.919000000
O    -5.166000000    -2.054000000    -4.083000000
C    -4.434000000    -0.881000000    -4.200000000
C    -3.777000000    -0.635000000    -5.364000000
H    -3.966000000    -1.328000000    -6.180000000
C    -2.894000000     0.369000000    -5.597000000
O    -2.301000000     0.522000000    -6.814000000
C    -1.074000000     1.093000000    -6.848000000
C     0.042000000     0.542000000    -6.225000000
H    -0.087000000    -0.344000000    -5.609000000
C    -0.917000000     2.408000000    -7.443000000
H    -1.793000000     2.945000000    -7.795000000
C     0.304000000     3.042000000    -7.486000000
H     0.448000000     4.068000000    -7.816000000
C     1.402000000     2.355000000    -6.941000000
H     2.413000000     2.740000000    -7.045000000
C     1.279000000     1.144000000    -6.339000000
O     2.302000000     0.484000000    -5.769000000
C     3.001000000     0.870000000    -4.690000000
C     4.279000000     0.349000000    -4.490000000
H     4.676000000    -0.242000000    -5.311000000
C     5.041000000     0.663000000    -3.410000000
O     6.302000000     0.135000000    -3.311000000
C     6.938000000    -0.167000000    -2.101000000
C     8.143000000     0.378000000    -1.769000000
H     8.651000000     0.985000000    -2.514000000
C     8.793000000    -0.047000000    -0.583000000
H     9.699000000     0.417000000    -0.201000000
C     8.214000000    -1.024000000     0.219000000
H     8.722000000    -1.294000000     1.142000000
C     6.938000000    -1.557000000    -0.054000000
C     6.305000000    -1.072000000    -1.260000000
H     5.373000000    -1.589000000    -1.473000000
C    -1.140000000    -1.483000000    -0.269000000
H    -2.174000000    -1.816000000    -0.273000000
C    -0.841000000    -0.214000000     0.156000000
H    -1.572000000     0.512000000     0.503000000
C     0.508000000     0.161000000     0.270000000
H     0.797000000     1.122000000     0.655000000
C     1.527000000    -0.681000000    -0.110000000
H     2.582000000    -0.457000000     0.029000000
C     1.216000000    -2.015000000    -0.505000000
H     1.978000000    -2.724000000    -0.820000000
C    -0.125000000    -2.398000000    -0.675000000
C    -0.531000000    -3.727000000    -1.277000000
O     0.274000000    -4.649000000    -1.281000000
O    -1.533000000    -3.830000000    -2.004000000
O     3.059000000    -5.633000000    -1.342000000
H     2.476000000    -4.896000000    -1.160000000
H     3.667000000    -5.301000000    -2.002000000
O    -2.884000000    -7.675000000    -5.340000000
H    -2.825000000    -8.112000000    -4.491000000
H    -3.059000000    -6.758000000    -5.126000000
O    -3.986000000    -5.304000000    -7.043000000
H    -3.074000000    -5.594000000    -7.072000000
H    -4.127000000    -5.048000000    -6.131000000
O     4.100000000    -3.284000000    -3.641000000
H     3.972000000    -3.965000000    -4.301000000
H     5.033000000    -3.325000000    -3.432000000
O     1.695000000    -2.630000000    -7.620000000
H     2.635000000    -2.519000000    -7.757000000
H     1.555000000    -2.384000000    -6.706000000
O    -1.676000000    -3.005000000    -6.127000000
H    -1.628000000    -2.295000000    -5.486000000
H    -1.960000000    -3.766000000    -5.621000000
O     0.686000000    -5.702000000    -4.023000000
H     0.746000000    -5.604000000    -3.072000000
H     1.508000000    -5.340000000    -4.354000000
O     1.401000000    -2.547000000    -4.799000000
H     2.214000000    -2.660000000    -4.307000000
H     0.717000000    -2.529000000    -4.129000000
O    -2.053000000    -5.019000000    -4.533000000
H    -1.239000000    -5.492000000    -4.707000000
H    -1.990000000    -4.764000000    -3.613000000
O     3.320000000    -5.662000000    -5.261000000
H     3.149000000    -5.642000000    -6.203000000
H     3.480000000    -6.586000000    -5.067000000
O     0.188000000    -8.585000000    -4.234000000
H     0.149000000    -7.630000000    -4.200000000
H     0.524000000    -8.842000000    -3.375000000
O     1.710000000    -7.981000000    -1.691000000
H     2.215000000    -7.190000000    -1.505000000
H     0.800000000    -7.728000000    -1.533000000
O     4.674000000    -7.550000000     0.145000000
H     4.366000000    -6.990000000    -0.568000000
H     5.604000000    -7.341000000     0.228000000
O    -3.053000000    -8.664000000    -2.666000000
H    -2.658000000    -9.288000000    -2.057000000
H    -2.863000000    -7.806000000    -2.287000000
O    -0.771000000    -6.920000000    -0.310000000
H    -1.622000000    -6.726000000    -0.704000000
H    -0.218000000    -6.178000000    -0.556000000
O    -3.136000000    -5.995000000    -1.612000000
H    -3.695000000    -5.764000000    -0.870000000
H    -2.588000000    -5.222000000    -1.748000000
O    -1.199000000    -1.777000000    -3.733000000
H    -1.356000000    -1.084000000    -3.092000000
H    -1.615000000    -2.551000000    -3.354000000
O    -4.663000000    -5.033000000    -4.552000000
H    -3.740000000    -5.094000000    -4.306000000
H    -5.047000000    -5.855000000    -4.246000000
O     0.598000000    -9.335000000     1.086000000
H     0.365000000    -8.597000000     0.523000000
H     1.412000000    -9.065000000     1.511000000
