215
-1468.30008
C    -3.216000000    -3.257000000     1.332000000
H    -3.852000000    -2.484000000     0.908000000
C    -2.509000000    -2.971000000     2.506000000
C    -1.658000000    -3.953000000     2.993000000
H    -1.090000000    -3.684000000     3.880000000
C    -2.446000000    -1.560000000     3.031000000
O    -3.728000000    -0.871000000     3.001000000
H    -1.765000000    -1.008000000     2.366000000
O    -1.873000000    -1.500000000     4.358000000
C    -0.863000000    -0.555000000     4.506000000
C     0.453000000    -1.028000000     4.452000000
H     0.644000000    -2.091000000     4.581000000
C     1.490000000    -0.141000000     4.472000000
O     2.756000000    -0.612000000     4.247000000
C     1.180000000     1.292000000     4.398000000
C     2.355000000     2.268000000     4.341000000
H     2.189000000     3.226000000     4.840000000
C     2.718000000     2.539000000     2.890000000
C     2.148000000     3.675000000     2.356000000
H     1.490000000     4.191000000     3.051000000
H     3.168000000     1.777000000     4.880000000
C    -0.144000000     1.720000000     4.494000000
H    -0.355000000     2.785000000     4.546000000
C    -1.175000000     0.798000000     4.557000000
C    -2.642000000     1.322000000     4.688000000
H    -2.631000000     2.205000000     5.331000000
H    -3.230000000     0.486000000     5.072000000
C    -3.222000000     1.511000000     3.287000000
C    -3.010000000     2.721000000     2.663000000
H    -2.387000000     3.428000000     3.205000000
C    -3.807000000     0.465000000     2.584000000
C    -4.290000000     0.708000000     1.281000000
H    -4.621000000    -0.065000000     0.592000000
C    -4.189000000     1.975000000     0.702000000
O    -4.603000000     2.121000000    -0.582000000
C    -3.567000000     2.323000000    -1.626000000
C    -4.078000000     1.576000000    -2.842000000
C    -3.731000000     1.993000000    -4.141000000
H    -3.155000000     2.900000000    -4.302000000
C    -4.664000000     0.374000000    -2.672000000
H    -4.903000000     0.098000000    -1.649000000
O    -3.218000000     3.721000000    -1.924000000
H    -2.682000000     1.728000000    -1.358000000
C    -3.471000000     2.979000000     1.360000000
C    -3.253000000     4.410000000     0.813000000
H    -3.166000000     5.121000000     1.637000000
H    -4.115000000     4.874000000     0.328000000
C    -1.961000000     4.551000000    -0.021000000
C    -0.781000000     4.908000000     0.540000000
H    -0.698000000     5.196000000     1.585000000
C    -2.085000000     4.220000000    -1.363000000
C    -0.926000000     4.129000000    -2.160000000
H    -0.933000000     3.641000000    -3.131000000
C     0.259000000     4.509000000    -1.552000000
O     1.436000000     4.200000000    -2.159000000
C     2.208000000     2.992000000    -1.805000000
C     2.694000000     2.283000000    -3.051000000
C     1.667000000     1.978000000    -4.009000000
H     0.683000000     2.439000000    -4.009000000
C     3.924000000     1.655000000    -3.120000000
H     4.749000000     1.894000000    -2.455000000
O     3.326000000     3.459000000    -1.061000000
H     1.668000000     2.248000000    -1.201000000
C     0.370000000     4.955000000    -0.225000000
C     1.697000000     5.261000000     0.425000000
H     1.542000000     5.913000000     1.287000000
H     2.405000000     5.670000000    -0.299000000
C     2.378000000     4.061000000     1.053000000
C     3.212000000     3.256000000     0.253000000
C     3.944000000     2.181000000     0.805000000
H     4.601000000     1.637000000     0.132000000
C     3.635000000     1.755000000     2.150000000
O     4.045000000     0.548000000     2.475000000
C     3.142000000    -0.545000000     2.832000000
H     2.176000000    -0.524000000     2.306000000
C     3.864000000    -1.836000000     2.430000000
C     3.671000000    -3.025000000     3.091000000
H     3.208000000    -3.038000000     4.074000000
C     4.530000000    -1.915000000     1.166000000
H     4.568000000    -1.033000000     0.532000000
C     5.039000000    -3.104000000     0.623000000
O     5.749000000    -3.101000000    -0.540000000
C     4.906000000    -4.278000000     1.417000000
H     5.307000000    -5.193000000     0.988000000
C     4.254000000    -4.248000000     2.619000000
O     3.878000000    -5.386000000     3.318000000
C     2.664000000    -5.520000000     3.963000000
C     1.500000000    -5.544000000     3.206000000
H     1.499000000    -5.464000000     2.122000000
C     2.646000000    -5.858000000     5.324000000
H     3.543000000    -5.904000000     5.936000000
C     1.455000000    -6.137000000     5.932000000
H     1.519000000    -6.372000000     6.991000000
C     0.282000000    -6.168000000     5.186000000
H    -0.663000000    -6.503000000     5.606000000
C     0.330000000    -5.938000000     3.816000000
O    -0.824000000    -6.194000000     3.076000000
C    -1.558000000    -5.207000000     2.411000000
C    -2.332000000    -5.498000000     1.357000000
H    -2.304000000    -6.470000000     0.870000000
C    -3.156000000    -4.544000000     0.784000000
O    -3.989000000    -4.853000000    -0.288000000
C    -4.917000000    -3.962000000    -0.752000000
C    -4.609000000    -3.314000000    -1.939000000
H    -3.743000000    -3.543000000    -2.555000000
C    -6.105000000    -3.735000000    -0.052000000
H    -6.388000000    -4.292000000     0.838000000
C    -7.006000000    -2.868000000    -0.618000000
H    -7.904000000    -2.645000000    -0.048000000
C    -6.746000000    -2.247000000    -1.800000000
H    -7.503000000    -1.587000000    -2.216000000
C    -5.489000000    -2.382000000    -2.472000000
O    -5.340000000    -1.751000000    -3.689000000
C    -4.955000000    -0.484000000    -3.739000000
C    -4.700000000     0.003000000    -5.084000000
H    -5.004000000    -0.595000000    -5.939000000
C    -4.012000000     1.183000000    -5.213000000
O    -3.663000000     1.650000000    -6.447000000
C    -2.373000000     2.094000000    -6.548000000
C    -1.329000000     1.292000000    -6.223000000
H    -1.515000000     0.273000000    -5.892000000
C    -2.157000000     3.379000000    -7.046000000
H    -2.936000000     4.012000000    -7.464000000
C    -0.891000000     3.907000000    -7.160000000
H    -0.692000000     4.917000000    -7.511000000
C     0.203000000     3.057000000    -6.903000000
H     1.242000000     3.324000000    -7.080000000
C    -0.019000000     1.713000000    -6.468000000
O     1.027000000     0.877000000    -6.165000000
C     1.927000000     1.143000000    -5.082000000
C     3.105000000     0.405000000    -5.062000000
H     3.360000000    -0.340000000    -5.811000000
C     4.135000000     0.749000000    -4.153000000
O     5.346000000     0.073000000    -4.258000000
C     5.983000000    -0.416000000    -3.085000000
C     7.001000000     0.296000000    -2.584000000
H     7.311000000     1.232000000    -3.040000000
C     7.745000000    -0.199000000    -1.521000000
H     8.722000000     0.202000000    -1.265000000
C     7.317000000    -1.357000000    -0.844000000
H     7.822000000    -1.881000000    -0.037000000
C     6.127000000    -1.985000000    -1.254000000
C     5.560000000    -1.571000000    -2.507000000
H     4.834000000    -2.235000000    -2.969000000
C    -0.253000000    -1.858000000    -0.287000000
H    -0.127000000    -2.728000000     0.352000000
C    -0.147000000    -0.592000000     0.276000000
H     0.278000000    -0.442000000     1.265000000
C    -0.298000000     0.494000000    -0.493000000
H    -0.130000000     1.447000000    -0.042000000
C    -0.520000000     0.412000000    -1.839000000
H    -0.722000000     1.268000000    -2.477000000
C    -0.689000000    -0.875000000    -2.368000000
H    -0.855000000    -1.061000000    -3.426000000
C    -0.608000000    -1.995000000    -1.611000000
C    -0.668000000    -3.401000000    -2.190000000
O    -1.096000000    -3.584000000    -3.348000000
O    -0.389000000    -4.356000000    -1.512000000
O    -4.649000000    -7.158000000    -1.639000000
H    -3.932000000    -6.528000000    -1.710000000
H    -4.755000000    -7.295000000    -0.698000000
O     2.212000000    -8.586000000    -5.062000000
H     2.075000000    -7.880000000    -4.430000000
H     1.534000000    -8.450000000    -5.723000000
O    -4.943000000    -5.515000000    -4.805000000
H    -5.008000000    -6.470000000    -4.823000000
H    -4.010000000    -5.341000000    -4.685000000
O     1.712000000    -5.404000000    -0.351000000
H     1.557000000    -6.273000000     0.022000000
H     0.874000000    -5.160000000    -0.745000000
O     3.349000000    -3.322000000    -5.671000000
H     2.468000000    -3.676000000    -5.793000000
H     3.472000000    -3.306000000    -4.722000000
O    -2.228000000    -5.849000000    -7.417000000
H    -2.352000000    -5.346000000    -6.612000000
H    -2.553000000    -5.275000000    -8.110000000
O     1.987000000    -6.787000000    -2.917000000
H     1.998000000    -5.876000000    -2.622000000
H     1.167000000    -7.141000000    -2.571000000
O     2.599000000    -3.064000000    -2.666000000
H     2.510000000    -3.726000000    -1.980000000
H     2.614000000    -2.231000000    -2.194000000
O    -0.680000000    -6.882000000    -5.639000000
H    -1.033000000    -6.475000000    -6.430000000
H    -0.851000000    -7.817000000    -5.755000000
O     0.171000000    -2.300000000    -5.977000000
H    -0.737000000    -2.365000000    -5.682000000
H     0.676000000    -2.748000000    -5.297000000
O    -1.707000000    -8.286000000    -0.909000000
H    -1.677000000    -7.555000000    -1.526000000
H    -2.624000000    -8.562000000    -0.909000000
O     0.448000000    -7.763000000     0.671000000
H    -0.396000000    -7.759000000     0.220000000
H     0.940000000    -8.468000000     0.252000000
O    -2.848000000    -1.599000000    -8.104000000
H    -2.155000000    -0.940000000    -8.061000000
H    -3.641000000    -1.101000000    -8.304000000
O     4.156000000    -7.025000000    -0.829000000
H     3.368000000    -7.210000000    -1.340000000
H     3.844000000    -6.512000000    -0.084000000
O    -2.155000000    -6.188000000    -2.789000000
H    -1.648000000    -5.399000000    -2.596000000
H    -2.114000000    -6.272000000    -3.742000000
O    -2.499000000    -4.299000000    -5.310000000
H    -2.975000000    -3.510000000    -5.570000000
H    -1.970000000    -4.024000000    -4.562000000
O    -4.534000000    -8.474000000    -4.051000000
H    -4.616000000    -7.984000000    -3.233000000
H    -3.952000000    -9.203000000    -3.835000000
O     2.606000000    -0.811000000    -1.117000000
H     2.586000000    -0.007000000    -1.637000000
H     1.740000000    -0.855000000    -0.712000000
O     1.112000000    -4.705000000    -4.854000000
H     0.623000000    -4.663000000    -4.032000000
H     0.700000000    -5.419000000    -5.341000000
