215
-1455.24896
C    -3.827000000    -3.421000000     1.775000000
H    -4.501000000    -2.612000000     1.504000000
C    -2.785000000    -3.186000000     2.626000000
C    -1.871000000    -4.220000000     2.911000000
H    -1.036000000    -4.131000000     3.602000000
C    -2.467000000    -1.743000000     2.966000000
O    -3.618000000    -0.986000000     3.215000000
H    -1.860000000    -1.309000000     2.158000000
O    -1.743000000    -1.647000000     4.232000000
C    -0.625000000    -0.909000000     4.344000000
C     0.657000000    -1.403000000     4.150000000
H     0.786000000    -2.466000000     3.964000000
C     1.778000000    -0.531000000     4.178000000
O     3.102000000    -0.928000000     3.857000000
C     1.628000000     0.872000000     4.497000000
C     2.852000000     1.812000000     4.515000000
H     2.721000000     2.686000000     5.157000000
C     3.135000000     2.451000000     3.103000000
C     2.434000000     3.589000000     2.625000000
H     1.651000000     4.052000000     3.219000000
H     3.734000000     1.322000000     4.931000000
C     0.363000000     1.310000000     4.633000000
H     0.164000000     2.367000000     4.790000000
C    -0.731000000     0.446000000     4.581000000
C    -2.099000000     1.089000000     4.705000000
H    -2.033000000     2.002000000     5.300000000
H    -2.786000000     0.489000000     5.305000000
C    -2.810000000     1.319000000     3.363000000
C    -2.750000000     2.638000000     2.859000000
H    -2.212000000     3.411000000     3.403000000
C    -3.563000000     0.359000000     2.696000000
C    -4.296000000     0.732000000     1.546000000
H    -4.792000000    -0.093000000     1.042000000
C    -4.062000000     1.984000000     1.007000000
O    -4.515000000     2.233000000    -0.287000000
C    -3.522000000     2.145000000    -1.314000000
C    -3.969000000     1.342000000    -2.556000000
C    -3.831000000     1.857000000    -3.879000000
H    -3.577000000     2.911000000    -3.965000000
C    -4.416000000    -0.010000000    -2.389000000
H    -4.453000000    -0.353000000    -1.358000000
O    -3.112000000     3.518000000    -1.572000000
H    -2.660000000     1.594000000    -0.911000000
C    -3.390000000     2.977000000     1.685000000
C    -3.187000000     4.368000000     1.130000000
H    -2.916000000     5.006000000     1.974000000
H    -4.138000000     4.682000000     0.695000000
C    -1.895000000     4.447000000     0.330000000
C    -0.692000000     4.852000000     0.918000000
H    -0.747000000     5.189000000     1.950000000
C    -1.950000000     3.990000000    -0.976000000
C    -0.785000000     4.017000000    -1.776000000
H    -0.881000000     3.731000000    -2.820000000
C     0.457000000     4.421000000    -1.167000000
O     1.575000000     4.278000000    -1.962000000
C     2.329000000     3.068000000    -1.649000000
C     2.661000000     2.544000000    -2.990000000
C     1.762000000     2.473000000    -4.020000000
H     0.881000000     3.110000000    -3.997000000
C     3.811000000     1.721000000    -3.086000000
H     4.476000000     1.678000000    -2.228000000
O     3.498000000     3.412000000    -0.900000000
H     1.812000000     2.310000000    -1.042000000
C     0.530000000     4.749000000     0.200000000
C     1.852000000     5.202000000     0.802000000
H     1.725000000     6.027000000     1.506000000
H     2.378000000     5.626000000    -0.056000000
C     2.692000000     4.041000000     1.298000000
C     3.432000000     3.249000000     0.422000000
C     4.188000000     2.168000000     0.917000000
H     4.744000000     1.531000000     0.234000000
C     4.002000000     1.779000000     2.226000000
O     4.537000000     0.587000000     2.650000000
C     3.562000000    -0.503000000     2.563000000
H     2.706000000    -0.235000000     1.926000000
C     4.107000000    -1.814000000     1.910000000
C     3.370000000    -3.005000000     2.159000000
H     2.542000000    -2.994000000     2.863000000
C     5.046000000    -1.747000000     0.907000000
H     5.604000000    -0.822000000     0.784000000
C     5.416000000    -2.889000000     0.175000000
O     6.396000000    -2.923000000    -0.728000000
C     4.711000000    -4.056000000     0.441000000
H     5.051000000    -4.942000000    -0.090000000
C     3.752000000    -4.137000000     1.386000000
O     3.125000000    -5.392000000     1.657000000
C     2.171000000    -5.679000000     2.660000000
C     0.829000000    -6.051000000     2.259000000
H     0.584000000    -6.091000000     1.200000000
C     2.551000000    -5.655000000     4.010000000
H     3.479000000    -5.273000000     4.428000000
C     1.551000000    -6.036000000     4.951000000
H     1.811000000    -6.145000000     6.001000000
C     0.235000000    -6.396000000     4.563000000
H    -0.509000000    -6.722000000     5.286000000
C    -0.085000000    -6.430000000     3.166000000
O    -1.406000000    -6.622000000     2.817000000
C    -2.142000000    -5.529000000     2.375000000
C    -3.251000000    -5.712000000     1.669000000
H    -3.541000000    -6.672000000     1.248000000
C    -4.084000000    -4.698000000     1.304000000
O    -5.064000000    -4.990000000     0.453000000
C    -5.635000000    -3.987000000    -0.282000000
C    -5.186000000    -3.730000000    -1.594000000
H    -4.368000000    -4.319000000    -1.999000000
C    -6.679000000    -3.289000000     0.280000000
H    -6.950000000    -3.427000000     1.323000000
C    -7.292000000    -2.297000000    -0.540000000
H    -8.195000000    -1.855000000    -0.128000000
C    -6.818000000    -1.880000000    -1.769000000
H    -7.277000000    -1.032000000    -2.272000000
C    -5.749000000    -2.611000000    -2.315000000
O    -5.126000000    -2.105000000    -3.387000000
C    -4.662000000    -0.789000000    -3.518000000
C    -4.522000000    -0.285000000    -4.788000000
H    -4.680000000    -1.012000000    -5.581000000
C    -4.079000000     1.046000000    -4.972000000
O    -3.777000000     1.413000000    -6.280000000
C    -2.572000000     2.180000000    -6.446000000
C    -1.338000000     1.606000000    -6.113000000
H    -1.347000000     0.555000000    -5.837000000
C    -2.594000000     3.536000000    -6.912000000
H    -3.479000000     4.105000000    -7.185000000
C    -1.399000000     4.265000000    -7.057000000
H    -1.569000000     5.268000000    -7.440000000
C    -0.235000000     3.680000000    -6.629000000
H     0.739000000     4.139000000    -6.782000000
C    -0.181000000     2.326000000    -6.260000000
O     1.048000000     1.719000000    -6.194000000
C     1.976000000     1.683000000    -5.182000000
C     3.129000000     0.914000000    -5.213000000
H     3.309000000     0.365000000    -6.134000000
C     4.087000000     0.910000000    -4.174000000
O     5.162000000     0.072000000    -4.239000000
C     5.961000000    -0.194000000    -3.046000000
C     6.998000000     0.683000000    -2.582000000
H     7.085000000     1.680000000    -3.007000000
C     7.885000000     0.182000000    -1.596000000
H     8.707000000     0.800000000    -1.242000000
C     7.732000000    -1.020000000    -0.977000000
H     8.411000000    -1.347000000    -0.194000000
C     6.688000000    -1.830000000    -1.421000000
C     5.848000000    -1.473000000    -2.548000000
H     5.180000000    -2.268000000    -2.870000000
C    -0.072000000    -2.028000000     0.198000000
H     0.237000000    -2.772000000     0.928000000
C     0.154000000    -0.647000000     0.458000000
H     0.689000000    -0.307000000     1.341000000
C    -0.207000000     0.268000000    -0.511000000
H     0.006000000     1.322000000    -0.342000000
C    -0.712000000    -0.163000000    -1.693000000
H    -1.005000000     0.558000000    -2.452000000
C    -0.986000000    -1.524000000    -1.929000000
H    -1.262000000    -1.875000000    -2.920000000
C    -0.633000000    -2.510000000    -1.010000000
C    -0.769000000    -3.974000000    -1.259000000
O    -1.292000000    -4.256000000    -2.333000000
O    -0.121000000    -4.739000000    -0.638000000
O     4.877000000    -5.210000000    -2.807000000
H     4.030000000    -5.063000000    -2.386000000
H     5.286000000    -5.903000000    -2.288000000
O    -6.407000000    -7.873000000    -0.873000000
H    -5.948000000    -8.367000000    -0.195000000
H    -6.478000000    -6.987000000    -0.517000000
O     1.057000000    -8.824000000    -4.603000000
H     0.560000000    -8.402000000    -3.903000000
H     0.650000000    -8.509000000    -5.410000000
O    -4.839000000    -6.800000000    -5.356000000
H    -4.996000000    -7.489000000    -4.710000000
H    -3.981000000    -6.444000000    -5.122000000
O    -1.140000000    -7.177000000    -0.266000000
H    -1.603000000    -7.240000000    -1.101000000
H    -0.921000000    -6.249000000    -0.183000000
O     2.014000000    -2.414000000    -5.903000000
H     1.187000000    -2.859000000    -6.091000000
H     2.053000000    -2.376000000    -4.948000000
O    -2.190000000    -6.059000000    -7.244000000
H    -2.100000000    -5.226000000    -6.781000000
H    -2.650000000    -5.835000000    -8.052000000
O     0.189000000    -6.470000000    -3.213000000
H     0.835000000    -6.042000000    -2.651000000
H    -0.649000000    -6.090000000    -2.948000000
O     2.170000000    -5.266000000    -1.475000000
H     2.353000000    -6.102000000    -1.048000000
H     1.369000000    -4.952000000    -1.055000000
O    -0.156000000    -7.655000000    -6.895000000
H    -0.904000000    -7.073000000    -7.031000000
H    -0.410000000    -8.474000000    -7.322000000
O    -1.752000000    -1.987000000    -7.111000000
H    -1.187000000    -2.759000000    -7.157000000
H    -2.173000000    -2.050000000    -6.254000000
O     4.018000000    -7.812000000     0.855000000
H     4.346000000    -7.710000000    -0.039000000
H     3.201000000    -7.313000000     0.867000000
O    -3.403000000    -9.153000000    -1.454000000
H    -3.392000000    -8.263000000    -1.807000000
H    -3.903000000    -9.081000000    -0.641000000
O     1.659000000    -7.808000000    -0.600000000
H     1.704000000    -8.762000000    -0.664000000
H     0.727000000    -7.619000000    -0.496000000
O    -3.130000000    -6.346000000    -2.209000000
H    -3.921000000    -5.958000000    -1.834000000
H    -2.485000000    -5.639000000    -2.191000000
O    -2.940000000    -3.437000000    -4.833000000
H    -3.747000000    -3.062000000    -4.483000000
H    -2.563000000    -3.922000000    -4.099000000
O     2.137000000    -2.195000000    -2.948000000
H     1.230000000    -2.236000000    -2.644000000
H     2.644000000    -1.994000000    -2.161000000
O    -0.056000000    -4.183000000    -6.410000000
H    -0.356000000    -4.392000000    -5.525000000
H     0.465000000    -4.942000000    -6.672000000
O    -1.722000000    -9.580000000     1.147000000
H    -0.866000000    -9.983000000     0.997000000
H    -1.662000000    -8.725000000     0.721000000
