215
-1464.22077
C    -3.043000000    -3.453000000     1.238000000
H    -3.548000000    -2.613000000     0.768000000
C    -2.453000000    -3.184000000     2.464000000
C    -1.725000000    -4.172000000     3.059000000
H    -1.235000000    -3.948000000     4.003000000
C    -2.508000000    -1.755000000     3.004000000
O    -3.826000000    -1.143000000     2.967000000
H    -1.941000000    -1.072000000     2.355000000
O    -2.018000000    -1.651000000     4.375000000
C    -1.016000000    -0.733000000     4.591000000
C     0.308000000    -1.121000000     4.608000000
H     0.585000000    -2.169000000     4.531000000
C     1.275000000    -0.097000000     4.653000000
O     2.513000000    -0.500000000     4.272000000
C     0.974000000     1.251000000     4.665000000
C     2.057000000     2.362000000     4.618000000
H     1.524000000     3.241000000     4.988000000
C     2.573000000     2.759000000     3.217000000
C     1.923000000     3.866000000     2.630000000
H     1.258000000     4.432000000     3.278000000
H     2.847000000     2.238000000     5.362000000
C    -0.377000000     1.554000000     4.724000000
H    -0.717000000     2.573000000     4.557000000
C    -1.376000000     0.580000000     4.699000000
C    -2.877000000     1.060000000     4.696000000
H    -2.937000000     2.011000000     5.230000000
H    -3.523000000     0.405000000     5.285000000
C    -3.408000000     1.241000000     3.286000000
C    -3.386000000     2.523000000     2.792000000
H    -3.100000000     3.443000000     3.296000000
C    -3.906000000     0.160000000     2.531000000
C    -4.256000000     0.344000000     1.148000000
H    -4.605000000    -0.483000000     0.534000000
C    -4.195000000     1.612000000     0.650000000
O    -4.407000000     1.764000000    -0.714000000
C    -3.363000000     1.967000000    -1.689000000
C    -3.767000000     1.200000000    -2.964000000
C    -3.174000000     1.494000000    -4.186000000
H    -2.401000000     2.258000000    -4.159000000
C    -4.624000000     0.097000000    -2.853000000
H    -5.286000000     0.068000000    -1.992000000
O    -3.255000000     3.366000000    -1.960000000
H    -2.391000000     1.602000000    -1.326000000
C    -3.779000000     2.741000000     1.444000000
C    -3.628000000     4.135000000     0.857000000
H    -3.642000000     4.853000000     1.680000000
H    -4.415000000     4.487000000     0.188000000
C    -2.337000000     4.323000000     0.060000000
C    -1.187000000     4.921000000     0.649000000
H    -1.261000000     5.192000000     1.699000000
C    -2.302000000     4.075000000    -1.330000000
C    -1.117000000     4.208000000    -2.028000000
H    -1.085000000     3.978000000    -3.090000000
C     0.044000000     4.669000000    -1.419000000
O     1.250000000     4.433000000    -2.072000000
C     2.026000000     3.224000000    -1.705000000
C     2.585000000     2.500000000    -2.923000000
C     1.912000000     2.493000000    -4.136000000
H     0.956000000     3.002000000    -4.227000000
C     3.799000000     1.842000000    -2.817000000
H     4.421000000     1.864000000    -1.925000000
O     3.105000000     3.692000000    -0.847000000
H     1.319000000     2.622000000    -1.115000000
C     0.037000000     4.982000000    -0.069000000
C     1.294000000     5.408000000     0.673000000
H     1.152000000     6.257000000     1.345000000
H     1.975000000     5.862000000    -0.050000000
C     2.120000000     4.251000000     1.303000000
C     2.933000000     3.444000000     0.454000000
C     3.596000000     2.338000000     1.018000000
H     4.233000000     1.668000000     0.446000000
C     3.377000000     1.997000000     2.364000000
O     3.879000000     0.790000000     2.809000000
C     3.030000000    -0.412000000     2.925000000
H     2.117000000    -0.283000000     2.325000000
C     3.818000000    -1.582000000     2.496000000
C     3.538000000    -2.857000000     3.024000000
H     2.940000000    -2.952000000     3.927000000
C     4.658000000    -1.521000000     1.406000000
H     4.897000000    -0.577000000     0.923000000
C     5.332000000    -2.672000000     0.947000000
O     6.158000000    -2.645000000    -0.172000000
C     5.018000000    -3.898000000     1.445000000
H     5.582000000    -4.761000000     1.100000000
C     4.138000000    -4.024000000     2.535000000
O     3.975000000    -5.257000000     3.157000000
C     2.756000000    -5.679000000     3.751000000
C     1.496000000    -5.535000000     3.110000000
H     1.435000000    -5.081000000     2.124000000
C     2.878000000    -6.292000000     4.969000000
H     3.848000000    -6.357000000     5.455000000
C     1.746000000    -6.900000000     5.531000000
H     1.896000000    -7.357000000     6.506000000
C     0.525000000    -6.884000000     4.872000000
H    -0.362000000    -7.380000000     5.259000000
C     0.438000000    -6.256000000     3.638000000
O    -0.791000000    -6.386000000     2.934000000
C    -1.599000000    -5.384000000     2.453000000
C    -2.189000000    -5.651000000     1.259000000
H    -2.076000000    -6.624000000     0.787000000
C    -3.006000000    -4.704000000     0.641000000
O    -3.598000000    -4.809000000    -0.585000000
C    -4.675000000    -4.072000000    -1.119000000
C    -4.552000000    -3.223000000    -2.197000000
H    -3.566000000    -2.971000000    -2.578000000
C    -5.945000000    -4.374000000    -0.683000000
H    -6.066000000    -5.022000000     0.182000000
C    -7.058000000    -3.904000000    -1.416000000
H    -8.046000000    -4.353000000    -1.346000000
C    -6.924000000    -3.028000000    -2.519000000
H    -7.717000000    -2.849000000    -3.240000000
C    -5.659000000    -2.649000000    -2.808000000
O    -5.586000000    -1.865000000    -3.934000000
C    -4.744000000    -0.811000000    -3.951000000
C    -4.134000000    -0.475000000    -5.172000000
H    -4.358000000    -1.127000000    -6.013000000
C    -3.428000000     0.699000000    -5.317000000
O    -2.905000000     1.009000000    -6.562000000
C    -1.883000000     1.872000000    -6.722000000
C    -0.508000000     1.505000000    -6.603000000
H    -0.194000000     0.492000000    -6.365000000
C    -2.142000000     3.176000000    -7.018000000
H    -3.178000000     3.499000000    -6.969000000
C    -1.183000000     4.136000000    -7.199000000
H    -1.368000000     5.204000000    -7.286000000
C     0.162000000     3.763000000    -6.917000000
H     0.956000000     4.489000000    -6.765000000
C     0.488000000     2.412000000    -6.640000000
O     1.802000000     1.969000000    -6.523000000
C     2.383000000     1.840000000    -5.268000000
C     3.585000000     1.168000000    -5.170000000
H     4.010000000     0.638000000    -6.019000000
C     4.307000000     1.163000000    -3.951000000
O     5.356000000     0.279000000    -3.774000000
C     6.030000000    -0.009000000    -2.689000000
C     7.002000000     0.885000000    -2.296000000
H     7.107000000     1.856000000    -2.772000000
C     7.812000000     0.516000000    -1.193000000
H     8.679000000     1.134000000    -0.973000000
C     7.503000000    -0.658000000    -0.465000000
H     8.048000000    -0.813000000     0.462000000
C     6.542000000    -1.510000000    -0.836000000
C     5.889000000    -1.168000000    -2.056000000
H     5.096000000    -1.781000000    -2.479000000
C     0.096000000    -3.010000000     0.035000000
H     0.367000000    -3.960000000     0.489000000
C     0.485000000    -1.810000000     0.586000000
H     0.927000000    -1.731000000     1.576000000
C     0.166000000    -0.675000000    -0.197000000
H     0.591000000     0.269000000     0.209000000
C    -0.538000000    -0.716000000    -1.379000000
H    -0.688000000     0.233000000    -1.889000000
C    -0.888000000    -1.941000000    -1.888000000
H    -1.256000000    -1.916000000    -2.911000000
C    -0.555000000    -3.137000000    -1.224000000
C    -0.742000000    -4.457000000    -1.834000000
O    -1.105000000    -4.454000000    -3.020000000
O    -0.227000000    -5.447000000    -1.326000000
O     3.607000000    -7.702000000    -1.697000000
H     3.722000000    -7.836000000    -0.756000000
H     4.065000000    -8.439000000    -2.101000000
O    -4.614000000    -5.541000000    -4.896000000
H    -5.289000000    -5.671000000    -4.230000000
H    -4.070000000    -6.326000000    -4.842000000
O     0.955000000    -8.701000000    -2.813000000
H     1.825000000    -8.396000000    -2.558000000
H     0.456000000    -7.899000000    -2.969000000
O    -3.262000000    -7.839000000    -4.290000000
H    -3.844000000    -8.554000000    -4.033000000
H    -2.509000000    -7.920000000    -3.704000000
O     0.493000000    -7.672000000    -0.139000000
H     0.271000000    -8.122000000    -0.954000000
H     0.164000000    -6.782000000    -0.260000000
O     3.330000000    -2.999000000    -5.006000000
H     2.937000000    -3.870000000    -5.071000000
H     3.338000000    -2.810000000    -4.068000000
O    -1.855000000    -3.556000000    -8.426000000
H    -2.048000000    -3.824000000    -7.527000000
H    -0.907000000    -3.428000000    -8.439000000
O    -0.429000000    -6.731000000    -4.224000000
H    -1.223000000    -6.856000000    -4.743000000
H    -0.572000000    -5.903000000    -3.764000000
O     2.422000000    -5.042000000    -1.701000000
H     2.925000000    -5.815000000    -1.443000000
H     1.513000000    -5.273000000    -1.510000000
O    -0.076000000    -2.433000000    -6.328000000
H     0.399000000    -2.439000000    -5.497000000
H    -0.913000000    -2.851000000    -6.129000000
O    -0.590000000   -10.684000000    -3.823000000
H    -0.469000000   -11.257000000    -3.065000000
H    -0.199000000    -9.851000000    -3.559000000
O    -2.109000000    -9.766000000    -1.040000000
H    -1.928000000    -8.827000000    -1.058000000
H    -2.840000000    -9.881000000    -1.647000000
O     4.737000000    -5.949000000    -5.596000000
H     4.241000000    -6.099000000    -6.401000000
H     4.073000000    -5.722000000    -4.945000000
O     2.967000000    -7.762000000     1.122000000
H     2.145000000    -7.646000000     0.645000000
H     2.767000000    -8.422000000     1.786000000
O    -2.325000000    -6.982000000    -1.832000000
H    -3.077000000    -6.400000000    -1.935000000
H    -1.587000000    -6.393000000    -1.669000000
O    -2.075000000    -3.980000000    -5.339000000
H    -2.989000000    -4.266000000    -5.361000000
H    -1.801000000    -4.123000000    -4.433000000
O     2.727000000    -2.316000000    -2.363000000
H     2.156000000    -1.868000000    -1.739000000
H     2.749000000    -3.224000000    -2.059000000
O     2.157000000    -5.256000000    -4.592000000
H     1.821000000    -5.124000000    -3.705000000
H     1.713000000    -6.046000000    -4.900000000
O    -1.536000000    -9.169000000     1.636000000
H    -0.731000000    -9.291000000     2.139000000
H    -1.258000000    -9.224000000     0.722000000
