215
-1426.40059
C    -3.248000000    -2.536000000     0.726000000
H    -3.286000000    -1.634000000     0.121000000
C    -3.036000000    -2.452000000     2.086000000
C    -2.835000000    -3.657000000     2.868000000
H    -2.570000000    -3.557000000     3.918000000
C    -2.794000000    -1.097000000     2.674000000
O    -3.915000000    -0.295000000     2.482000000
H    -2.043000000    -0.590000000     2.051000000
O    -2.567000000    -1.030000000     4.129000000
C    -1.515000000    -0.195000000     4.544000000
C    -0.341000000    -0.825000000     4.770000000
H    -0.347000000    -1.894000000     4.576000000
C     0.856000000    -0.066000000     4.811000000
O     2.060000000    -0.711000000     4.719000000
C     0.734000000     1.338000000     4.854000000
C     1.970000000     2.204000000     4.960000000
H     1.725000000     3.118000000     5.505000000
C     2.518000000     2.446000000     3.548000000
C     2.158000000     3.580000000     2.870000000
H     1.558000000     4.321000000     3.392000000
H     2.686000000     1.703000000     5.614000000
C    -0.515000000     1.868000000     4.611000000
H    -0.527000000     2.944000000     4.454000000
C    -1.705000000     1.167000000     4.425000000
C    -3.032000000     1.897000000     4.223000000
H    -2.979000000     2.791000000     4.849000000
H    -3.782000000     1.281000000     4.724000000
C    -3.487000000     2.149000000     2.811000000
C    -3.349000000     3.387000000     2.210000000
H    -3.044000000     4.143000000     2.930000000
C    -3.719000000     1.025000000     2.006000000
C    -3.845000000     1.169000000     0.641000000
H    -4.145000000     0.332000000     0.016000000
C    -3.764000000     2.374000000     0.060000000
O    -3.876000000     2.397000000    -1.312000000
C    -2.782000000     2.438000000    -2.166000000
C    -3.041000000     1.761000000    -3.468000000
C    -2.490000000     2.142000000    -4.660000000
H    -1.716000000     2.902000000    -4.723000000
C    -3.897000000     0.678000000    -3.502000000
H    -4.330000000     0.293000000    -2.582000000
O    -2.472000000     3.789000000    -2.391000000
H    -1.912000000     1.940000000    -1.715000000
C    -3.465000000     3.477000000     0.828000000
C    -3.085000000     4.774000000     0.144000000
H    -3.141000000     5.642000000     0.805000000
H    -3.712000000     5.107000000    -0.686000000
C    -1.605000000     4.714000000    -0.369000000
C    -0.502000000     5.049000000     0.440000000
H    -0.650000000     5.432000000     1.447000000
C    -1.400000000     4.193000000    -1.658000000
C    -0.117000000     4.016000000    -2.190000000
H     0.164000000     4.002000000    -3.240000000
C     0.990000000     4.321000000    -1.361000000
O     2.178000000     3.990000000    -1.891000000
C     2.594000000     2.675000000    -1.453000000
C     3.016000000     1.757000000    -2.557000000
C     2.425000000     1.702000000    -3.814000000
H     1.749000000     2.500000000    -4.110000000
C     4.072000000     0.871000000    -2.229000000
H     4.473000000     0.800000000    -1.221000000
O     3.560000000     2.910000000    -0.421000000
H     1.664000000     2.162000000    -1.166000000
C     0.835000000     4.831000000    -0.075000000
C     2.037000000     5.162000000     0.806000000
H     1.730000000     5.857000000     1.590000000
H     2.866000000     5.533000000     0.199000000
C     2.508000000     3.853000000     1.512000000
C     3.182000000     2.828000000     0.833000000
C     3.549000000     1.674000000     1.475000000
H     4.041000000     0.886000000     0.912000000
C     3.347000000     1.565000000     2.849000000
O     3.673000000     0.366000000     3.446000000
C     2.798000000    -0.717000000     3.461000000
H     2.058000000    -0.527000000     2.669000000
C     3.290000000    -2.123000000     3.049000000
C     2.500000000    -3.220000000     3.345000000
H     1.562000000    -3.133000000     3.886000000
C     4.445000000    -2.289000000     2.345000000
H     4.994000000    -1.399000000     2.046000000
C     4.833000000    -3.522000000     1.918000000
O     6.029000000    -3.590000000     1.187000000
C     4.085000000    -4.633000000     2.246000000
H     4.552000000    -5.587000000     2.014000000
C     2.878000000    -4.525000000     2.903000000
O     2.177000000    -5.631000000     3.167000000
C     1.015000000    -5.884000000     3.823000000
C    -0.201000000    -5.634000000     3.175000000
H    -0.126000000    -5.130000000     2.215000000
C     1.073000000    -6.596000000     4.979000000
H     2.071000000    -6.749000000     5.382000000
C    -0.160000000    -7.108000000     5.481000000
H    -0.172000000    -7.771000000     6.342000000
C    -1.366000000    -6.923000000     4.803000000
H    -2.210000000    -7.436000000     5.258000000
C    -1.389000000    -6.137000000     3.657000000
O    -2.558000000    -6.051000000     2.884000000
C    -2.942000000    -4.855000000     2.242000000
C    -3.194000000    -4.947000000     0.861000000
H    -3.258000000    -5.924000000     0.388000000
C    -3.477000000    -3.794000000     0.123000000
O    -3.653000000    -3.879000000    -1.205000000
C    -4.699000000    -3.364000000    -1.905000000
C    -4.425000000    -2.555000000    -3.091000000
H    -3.408000000    -2.399000000    -3.442000000
C    -5.964000000    -3.610000000    -1.534000000
H    -6.169000000    -4.190000000    -0.637000000
C    -7.032000000    -3.045000000    -2.258000000
H    -8.066000000    -3.154000000    -1.941000000
C    -6.773000000    -2.175000000    -3.348000000
H    -7.467000000    -1.641000000    -3.993000000
C    -5.478000000    -1.887000000    -3.654000000
O    -5.271000000    -0.865000000    -4.644000000
C    -4.241000000     0.066000000    -4.682000000
C    -3.702000000     0.482000000    -5.913000000
H    -4.143000000     0.060000000    -6.812000000
C    -2.839000000     1.550000000    -5.853000000
O    -2.152000000     1.897000000    -7.029000000
C    -0.828000000     2.324000000    -7.007000000
C     0.062000000     1.361000000    -6.535000000
H    -0.346000000     0.410000000    -6.203000000
C    -0.330000000     3.615000000    -7.384000000
H    -1.114000000     4.307000000    -7.682000000
C     0.988000000     3.954000000    -7.213000000
H     1.450000000     4.931000000    -7.333000000
C     1.861000000     2.934000000    -6.655000000
H     2.879000000     3.215000000    -6.396000000
C     1.396000000     1.654000000    -6.449000000
O     2.203000000     0.648000000    -5.998000000
C     2.809000000     0.771000000    -4.740000000
C     3.592000000    -0.262000000    -4.316000000
H     3.889000000    -1.098000000    -4.945000000
C     4.261000000    -0.215000000    -3.128000000
O     5.117000000    -1.245000000    -2.800000000
C     5.815000000    -1.245000000    -1.629000000
C     6.798000000    -0.337000000    -1.355000000
H     6.940000000     0.534000000    -1.990000000
C     7.627000000    -0.422000000    -0.255000000
H     8.433000000     0.274000000    -0.036000000
C     7.424000000    -1.582000000     0.563000000
H     7.932000000    -1.645000000     1.522000000
C     6.448000000    -2.545000000     0.312000000
C     5.694000000    -2.362000000    -0.790000000
H     4.891000000    -3.069000000    -0.981000000
C    -0.179000000    -2.807000000    -0.906000000
H    -0.381000000    -3.635000000    -0.230000000
C     0.178000000    -1.523000000    -0.398000000
H     0.429000000    -1.472000000     0.658000000
C     0.199000000    -0.380000000    -1.215000000
H     0.452000000     0.507000000    -0.749000000
C    -0.129000000    -0.504000000    -2.497000000
H    -0.125000000     0.382000000    -3.127000000
C    -0.530000000    -1.758000000    -3.072000000
H    -0.815000000    -1.910000000    -4.110000000
C    -0.566000000    -2.888000000    -2.245000000
C    -0.862000000    -4.266000000    -2.872000000
O    -1.591000000    -4.319000000    -3.885000000
O    -0.697000000    -5.317000000    -2.204000000
O    -5.228000000    -5.241000000    -5.335000000
H    -5.898000000    -4.563000000    -5.421000000
H    -5.678000000    -5.968000000    -4.904000000
O     0.335000000    -6.963000000    -3.979000000
H     1.170000000    -7.049000000    -3.518000000
H    -0.114000000    -6.246000000    -3.532000000
O    -0.999000000    -7.530000000    -0.960000000
H    -1.809000000    -7.802000000    -1.392000000
H    -0.823000000    -6.657000000    -1.310000000
O     3.024000000    -4.730000000    -5.738000000
H     2.104000000    -4.619000000    -5.977000000
H     3.026000000    -4.721000000    -4.781000000
O    -1.886000000    -2.225000000    -8.004000000
H    -2.316000000    -2.695000000    -7.290000000
H    -1.192000000    -1.723000000    -7.577000000
O    -1.742000000    -6.805000000    -5.720000000
H    -0.951000000    -6.831000000    -5.182000000
H    -2.409000000    -6.427000000    -5.147000000
O     4.509000000    -5.243000000    -2.881000000
H     3.948000000    -6.019000000    -2.896000000
H     3.909000000    -4.518000000    -2.707000000
O     1.154000000    -2.403000000    -7.501000000
H     0.913000000    -3.071000000    -6.860000000
H     2.051000000    -2.624000000    -7.752000000
O    -0.657000000   -10.085000000    -4.275000000
H    -0.705000000   -10.013000000    -3.321000000
H    -0.050000000    -9.392000000    -4.536000000
O    -3.509000000    -8.511000000    -2.006000000
H    -3.576000000    -7.656000000    -2.432000000
H    -3.922000000    -9.118000000    -2.620000000
O     1.454000000    -8.148000000     0.260000000
H     0.708000000    -7.595000000     0.030000000
H     1.073000000    -8.867000000     0.763000000
O     2.905000000    -7.472000000    -3.306000000
H     2.990000000    -7.688000000    -4.234000000
H     3.128000000    -8.284000000    -2.850000000
O    -5.035000000    -2.173000000    -7.620000000
H    -4.494000000    -2.011000000    -8.393000000
H    -4.414000000    -2.446000000    -6.945000000
O    -3.482000000    -6.183000000    -3.077000000
H    -4.084000000    -5.761000000    -3.690000000
H    -2.836000000    -5.507000000    -2.872000000
O    -3.200000000    -3.625000000    -6.063000000
H    -4.052000000    -4.017000000    -5.868000000
H    -2.654000000    -3.852000000    -5.310000000
O    -0.904000000   -10.503000000    -1.369000000
H    -0.993000000    -9.571000000    -1.168000000
H    -1.272000000   -10.948000000    -0.605000000
O     2.454000000    -3.484000000    -2.219000000
H     2.300000000    -2.550000000    -2.080000000
H     1.760000000    -3.918000000    -1.723000000
O     0.147000000    -4.402000000    -5.985000000
H    -0.581000000    -4.316000000    -5.369000000
H     0.047000000    -5.280000000    -6.353000000
O     3.255000000    -7.382000000    -6.176000000
H     3.684000000    -7.499000000    -7.024000000
H     3.255000000    -6.436000000    -6.036000000
