215
-1471.16848
C    -3.169000000    -3.207000000     2.788000000
H    -3.828000000    -2.347000000     2.880000000
C    -1.802000000    -3.003000000     3.078000000
C    -0.924000000    -4.037000000     2.736000000
H     0.137000000    -3.843000000     2.870000000
C    -1.290000000    -1.706000000     3.476000000
O    -2.317000000    -0.934000000     4.179000000
H    -0.939000000    -1.148000000     2.596000000
O    -0.269000000    -1.876000000     4.457000000
C     0.835000000    -0.993000000     4.355000000
C     2.009000000    -1.533000000     3.801000000
H     1.972000000    -2.577000000     3.501000000
C     3.105000000    -0.721000000     3.475000000
O     4.040000000    -1.305000000     2.648000000
C     3.136000000     0.592000000     3.856000000
C     4.312000000     1.439000000     3.385000000
H     4.518000000     2.266000000     4.069000000
C     3.947000000     1.997000000     1.972000000
C     3.285000000     3.187000000     1.800000000
H     2.948000000     3.752000000     2.665000000
H     5.220000000     0.832000000     3.389000000
C     1.987000000     1.153000000     4.440000000
H     1.882000000     2.188000000     4.754000000
C     0.782000000     0.394000000     4.644000000
C    -0.405000000     0.922000000     5.454000000
H    -0.131000000     1.790000000     6.057000000
H    -0.813000000     0.177000000     6.140000000
C    -1.539000000     1.332000000     4.486000000
C    -1.620000000     2.642000000     4.096000000
H    -0.894000000     3.333000000     4.517000000
C    -2.345000000     0.427000000     3.894000000
C    -3.344000000     0.787000000     3.005000000
H    -4.052000000     0.077000000     2.585000000
C    -3.387000000     2.054000000     2.561000000
O    -4.270000000     2.323000000     1.568000000
C    -3.622000000     2.341000000     0.296000000
C    -4.438000000     1.755000000    -0.872000000
C    -4.589000000     2.369000000    -2.083000000
H    -4.168000000     3.311000000    -2.423000000
C    -5.006000000     0.509000000    -0.703000000
H    -4.690000000    -0.033000000     0.185000000
O    -3.433000000     3.752000000    -0.065000000
H    -2.635000000     1.857000000     0.328000000
C    -2.481000000     3.010000000     3.095000000
C    -2.437000000     4.440000000     2.510000000
H    -1.978000000     5.129000000     3.223000000
H    -3.438000000     4.840000000     2.333000000
C    -1.596000000     4.429000000     1.223000000
C    -0.181000000     4.808000000     1.315000000
H     0.167000000     5.025000000     2.322000000
C    -2.129000000     4.141000000     0.005000000
C    -1.279000000     4.245000000    -1.110000000
H    -1.724000000     4.036000000    -2.079000000
C     0.119000000     4.530000000    -1.036000000
O     0.877000000     4.310000000    -2.141000000
C     1.667000000     3.130000000    -2.226000000
C     1.508000000     2.561000000    -3.638000000
C     0.258000000     2.446000000    -4.254000000
H    -0.623000000     2.943000000    -3.855000000
C     2.556000000     1.865000000    -4.202000000
H     3.562000000     1.849000000    -3.792000000
O     2.996000000     3.302000000    -1.842000000
H     1.232000000     2.449000000    -1.480000000
C     0.665000000     4.812000000     0.266000000
C     2.169000000     4.971000000     0.425000000
H     2.377000000     5.535000000     1.336000000
H     2.575000000     5.562000000    -0.399000000
C     2.954000000     3.677000000     0.544000000
C     3.370000000     2.958000000    -0.571000000
C     4.056000000     1.802000000    -0.422000000
H     4.343000000     1.284000000    -1.333000000
C     4.350000000     1.271000000     0.856000000
O     4.880000000     0.034000000     0.930000000
C     3.924000000    -1.122000000     1.192000000
H     2.900000000    -0.858000000     0.888000000
C     4.392000000    -2.341000000     0.421000000
C     4.434000000    -3.605000000     0.961000000
H     4.174000000    -3.666000000     2.015000000
C     4.583000000    -2.144000000    -0.936000000
H     4.521000000    -1.170000000    -1.415000000
C     5.014000000    -3.206000000    -1.722000000
O     5.210000000    -3.082000000    -3.104000000
C     5.009000000    -4.496000000    -1.153000000
H     5.311000000    -5.349000000    -1.754000000
C     4.651000000    -4.695000000     0.168000000
O     4.483000000    -5.965000000     0.703000000
C     3.378000000    -6.294000000     1.459000000
C     2.102000000    -5.889000000     1.118000000
H     1.998000000    -5.429000000     0.139000000
C     3.614000000    -7.012000000     2.631000000
H     4.633000000    -7.342000000     2.818000000
C     2.499000000    -7.379000000     3.447000000
H     2.626000000    -8.067000000     4.280000000
C     1.245000000    -6.956000000     3.074000000
H     0.380000000    -7.165000000     3.699000000
C     1.018000000    -6.210000000     1.936000000
O    -0.317000000    -6.057000000     1.557000000
C    -1.298000000    -5.205000000     2.104000000
C    -2.631000000    -5.405000000     1.779000000
H    -2.995000000    -6.317000000     1.312000000
C    -3.560000000    -4.406000000     2.160000000
O    -4.840000000    -4.646000000     1.764000000
C    -5.692000000    -3.583000000     1.443000000
C    -5.490000000    -3.094000000     0.147000000
H    -4.746000000    -3.484000000    -0.543000000
C    -6.646000000    -3.083000000     2.324000000
H    -6.741000000    -3.586000000     3.283000000
C    -7.487000000    -2.088000000     1.904000000
H    -8.305000000    -1.783000000     2.553000000
C    -7.318000000    -1.512000000     0.650000000
H    -7.960000000    -0.695000000     0.330000000
C    -6.282000000    -2.022000000    -0.211000000
O    -6.110000000    -1.537000000    -1.496000000
C    -5.753000000    -0.192000000    -1.704000000
C    -5.931000000     0.419000000    -2.870000000
H    -6.396000000    -0.113000000    -3.695000000
C    -5.360000000     1.709000000    -3.086000000
O    -5.495000000     2.185000000    -4.404000000
C    -4.410000000     2.845000000    -4.919000000
C    -3.332000000     1.990000000    -5.404000000
H    -3.482000000     0.914000000    -5.433000000
C    -4.206000000     4.201000000    -4.825000000
H    -4.850000000     4.896000000    -4.292000000
C    -3.017000000     4.788000000    -5.360000000
H    -2.905000000     5.869000000    -5.325000000
C    -2.101000000     3.966000000    -5.976000000
H    -1.211000000     4.441000000    -6.381000000
C    -2.203000000     2.510000000    -5.944000000
O    -1.106000000     1.694000000    -6.168000000
C     0.088000000     1.747000000    -5.481000000
C     1.214000000     1.103000000    -6.092000000
H     1.093000000     0.500000000    -6.988000000
C     2.461000000     1.153000000    -5.401000000
O     3.454000000     0.336000000    -5.951000000
C     4.520000000    -0.134000000    -5.204000000
C     5.631000000     0.621000000    -4.928000000
H     5.743000000     1.582000000    -5.425000000
C     6.564000000     0.136000000    -4.072000000
H     7.394000000     0.810000000    -3.873000000
C     6.452000000    -1.057000000    -3.418000000
H     7.126000000    -1.368000000    -2.624000000
C     5.357000000    -1.839000000    -3.774000000
C     4.402000000    -1.446000000    -4.694000000
H     3.539000000    -2.036000000    -4.990000000
C    -0.237000000    -2.581000000    -0.654000000
H     0.041000000    -3.627000000    -0.550000000
C     0.546000000    -1.718000000     0.133000000
H     1.196000000    -2.181000000     0.871000000
C     0.443000000    -0.326000000     0.089000000
H     1.053000000     0.303000000     0.723000000
C    -0.495000000     0.242000000    -0.807000000
H    -0.593000000     1.325000000    -0.821000000
C    -1.236000000    -0.545000000    -1.665000000
H    -1.892000000    -0.107000000    -2.413000000
C    -1.114000000    -1.968000000    -1.578000000
C    -1.778000000    -2.767000000    -2.552000000
O    -2.495000000    -2.280000000    -3.413000000
O    -1.633000000    -3.953000000    -2.649000000
O    -0.529000000    -7.392000000    -6.409000000
H    -0.377000000    -8.035000000    -5.716000000
H    -1.039000000    -6.701000000    -5.986000000
O    -7.615000000    -4.794000000    -4.595000000
H    -7.493000000    -4.803000000    -5.544000000
H    -7.017000000    -4.114000000    -4.284000000
O    -6.429000000    -7.325000000    -2.122000000
H    -6.064000000    -7.779000000    -2.881000000
H    -5.784000000    -7.461000000    -1.428000000
O    -4.771000000    -5.178000000    -5.840000000
H    -4.905000000    -4.804000000    -4.970000000
H    -5.276000000    -4.612000000    -6.424000000
O    -0.198000000    -1.750000000    -5.944000000
H    -0.519000000    -1.041000000    -6.501000000
H    -0.935000000    -1.957000000    -5.370000000
O    -3.810000000    -0.560000000    -8.137000000
H    -3.982000000     0.363000000    -7.953000000
H    -3.604000000    -0.940000000    -7.283000000
O    -2.187000000    -3.011000000    -8.026000000
H    -1.793000000    -3.473000000    -7.287000000
H    -2.930000000    -2.542000000    -7.647000000
O    -0.241000000    -6.193000000    -2.950000000
H     0.642000000    -5.850000000    -2.810000000
H    -0.800000000    -5.416000000    -2.968000000
O     2.162000000    -2.819000000    -7.329000000
H     1.446000000    -2.203000000    -7.174000000
H     1.893000000    -3.618000000    -6.875000000
O     0.200000000    -8.610000000    -4.027000000
H    -0.110000000    -7.714000000    -3.899000000
H     0.846000000    -8.742000000    -3.333000000
O     1.451000000    -2.046000000    -3.196000000
H     0.827000000    -2.131000000    -3.917000000
H     1.092000000    -1.347000000    -2.649000000
O    -3.447000000    -1.951000000    -5.760000000
H    -4.324000000    -2.229000000    -5.497000000
H    -2.943000000    -1.947000000    -4.946000000
O    -5.579000000    -7.012000000     0.677000000
H    -5.039000000    -6.270000000     0.405000000
H    -6.022000000    -6.708000000     1.469000000
O    -6.172000000    -2.651000000    -6.237000000
H    -7.006000000    -2.245000000    -5.998000000
H    -6.172000000    -2.653000000    -7.194000000
O    -1.560000000    -7.876000000    -1.392000000
H    -2.179000000    -7.162000000    -1.243000000
H    -0.777000000    -7.446000000    -1.738000000
O    -4.673000000    -3.768000000    -3.531000000
H    -5.297000000    -3.517000000    -2.850000000
H    -3.932000000    -3.175000000    -3.408000000
O    -3.435000000    -5.520000000    -1.387000000
H    -2.644000000    -5.108000000    -1.734000000
H    -4.151000000    -5.107000000    -1.869000000
O     1.918000000    -4.784000000    -2.687000000
H     2.672000000    -5.087000000    -3.193000000
H     1.972000000    -3.829000000    -2.725000000
O    -1.560000000    -4.759000000    -5.343000000
H    -2.506000000    -4.884000000    -5.410000000
H    -1.432000000    -4.350000000    -4.487000000
