215
-1440.25747
C    -3.069000000    -3.183000000     3.301000000
H    -3.693000000    -2.296000000     3.370000000
C    -1.698000000    -2.953000000     3.442000000
C    -0.816000000    -4.047000000     3.308000000
H     0.234000000    -3.872000000     3.528000000
C    -1.148000000    -1.639000000     3.837000000
O    -2.112000000    -0.910000000     4.523000000
H    -0.924000000    -1.052000000     2.934000000
O     0.127000000    -1.803000000     4.628000000
C     1.128000000    -0.869000000     4.394000000
C     2.129000000    -1.225000000     3.563000000
H     2.218000000    -2.253000000     3.222000000
C     3.071000000    -0.272000000     3.212000000
O     4.110000000    -0.744000000     2.424000000
C     2.989000000     1.111000000     3.541000000
C     4.065000000     2.122000000     3.127000000
H     4.004000000     2.946000000     3.841000000
C     3.793000000     2.632000000     1.670000000
C     3.027000000     3.707000000     1.401000000
H     2.545000000     4.214000000     2.233000000
H     5.076000000     1.735000000     3.270000000
C     1.928000000     1.484000000     4.329000000
H     1.797000000     2.502000000     4.686000000
C     0.982000000     0.501000000     4.663000000
C    -0.289000000     0.995000000     5.448000000
H     0.051000000     1.810000000     6.090000000
H    -0.662000000     0.247000000     6.151000000
C    -1.273000000     1.360000000     4.423000000
C    -1.367000000     2.671000000     3.812000000
H    -0.638000000     3.446000000     4.033000000
C    -2.230000000     0.431000000     4.079000000
C    -3.284000000     0.737000000     3.207000000
H    -4.086000000     0.016000000     3.068000000
C    -3.339000000     1.921000000     2.551000000
O    -4.198000000     2.021000000     1.508000000
C    -3.600000000     1.997000000     0.176000000
C    -4.536000000     1.219000000    -0.705000000
C    -4.522000000     1.521000000    -2.074000000
H    -3.893000000     2.324000000    -2.450000000
C    -5.248000000     0.068000000    -0.260000000
H    -5.338000000    -0.106000000     0.809000000
O    -3.288000000     3.326000000    -0.298000000
H    -2.723000000     1.340000000     0.277000000
C    -2.392000000     2.928000000     2.885000000
C    -2.345000000     4.321000000     2.230000000
H    -2.014000000     4.971000000     3.042000000
H    -3.402000000     4.540000000     2.062000000
C    -1.539000000     4.266000000     0.947000000
C    -0.270000000     4.869000000     0.919000000
H     0.154000000     5.211000000     1.860000000
C    -2.026000000     3.806000000    -0.235000000
C    -1.232000000     3.847000000    -1.390000000
H    -1.617000000     3.471000000    -2.335000000
C     0.019000000     4.439000000    -1.406000000
O     0.832000000     4.367000000    -2.572000000
C     1.747000000     3.207000000    -2.638000000
C     1.610000000     2.500000000    -3.949000000
C     0.445000000     2.422000000    -4.661000000
H    -0.394000000     3.070000000    -4.417000000
C     2.670000000     1.674000000    -4.322000000
H     3.562000000     1.533000000    -3.718000000
O     3.106000000     3.618000000    -2.270000000
H     1.445000000     2.478000000    -1.872000000
C     0.476000000     5.027000000    -0.271000000
C     1.983000000     5.401000000    -0.177000000
H     2.032000000     6.155000000     0.611000000
H     2.420000000     5.936000000    -1.022000000
C     2.860000000     4.154000000     0.078000000
C     3.494000000     3.474000000    -1.016000000
C     4.225000000     2.333000000    -0.709000000
H     4.751000000     1.798000000    -1.495000000
C     4.348000000     1.892000000     0.652000000
O     4.913000000     0.669000000     0.845000000
C     3.951000000    -0.355000000     1.025000000
H     2.912000000    -0.001000000     0.952000000
C     4.178000000    -1.616000000     0.207000000
C     3.400000000    -2.761000000     0.420000000
H     2.523000000    -2.750000000     1.062000000
C     5.078000000    -1.707000000    -0.903000000
H     5.668000000    -0.827000000    -1.148000000
C     5.307000000    -2.862000000    -1.601000000
O     6.103000000    -2.751000000    -2.696000000
C     4.455000000    -3.936000000    -1.351000000
H     4.605000000    -4.861000000    -1.902000000
C     3.518000000    -3.922000000    -0.368000000
O     2.886000000    -5.161000000    -0.134000000
C     2.596000000    -5.581000000     1.118000000
C     1.303000000    -5.885000000     1.421000000
H     0.493000000    -5.709000000     0.718000000
C     3.531000000    -5.931000000     2.157000000
H     4.565000000    -5.600000000     2.109000000
C     3.105000000    -6.455000000     3.352000000
H     3.817000000    -6.613000000     4.158000000
C     1.801000000    -6.736000000     3.611000000
H     1.437000000    -7.065000000     4.581000000
C     0.911000000    -6.424000000     2.621000000
O    -0.413000000    -6.467000000     2.871000000
C    -1.268000000    -5.361000000     2.961000000
C    -2.654000000    -5.493000000     2.839000000
H    -3.026000000    -6.492000000     2.624000000
C    -3.526000000    -4.440000000     2.970000000
O    -4.816000000    -4.701000000     2.765000000
C    -5.788000000    -3.866000000     2.249000000
C    -5.664000000    -3.411000000     0.993000000
H    -4.704000000    -3.661000000     0.547000000
C    -6.760000000    -3.401000000     3.138000000
H    -6.766000000    -3.751000000     4.167000000
C    -7.628000000    -2.420000000     2.691000000
H    -8.435000000    -2.036000000     3.309000000
C    -7.433000000    -1.913000000     1.398000000
H    -8.026000000    -1.045000000     1.121000000
C    -6.502000000    -2.370000000     0.532000000
O    -6.445000000    -1.899000000    -0.774000000
C    -5.847000000    -0.744000000    -1.181000000
C    -5.905000000    -0.417000000    -2.547000000
H    -6.473000000    -1.097000000    -3.176000000
C    -5.145000000     0.692000000    -2.994000000
O    -5.091000000     0.938000000    -4.364000000
C    -4.183000000     1.807000000    -4.933000000
C    -2.901000000     1.360000000    -5.350000000
H    -2.585000000     0.348000000    -5.110000000
C    -4.622000000     3.077000000    -5.286000000
H    -5.594000000     3.444000000    -4.967000000
C    -3.728000000     3.904000000    -6.007000000
H    -4.124000000     4.821000000    -6.436000000
C    -2.448000000     3.460000000    -6.331000000
H    -1.745000000     4.130000000    -6.820000000
C    -2.005000000     2.155000000    -6.051000000
O    -0.810000000     1.608000000    -6.476000000
C     0.319000000     1.568000000    -5.707000000
C     1.298000000     0.645000000    -6.059000000
H     1.267000000     0.039000000    -6.961000000
C     2.452000000     0.700000000    -5.321000000
O     3.461000000    -0.147000000    -5.679000000
C     4.648000000    -0.419000000    -5.078000000
C     5.819000000     0.292000000    -5.485000000
H     5.789000000     1.036000000    -6.277000000
C     7.062000000    -0.032000000    -4.958000000
H     7.917000000     0.586000000    -5.218000000
C     7.139000000    -1.015000000    -3.989000000
H     8.092000000    -1.238000000    -3.518000000
C     5.972000000    -1.683000000    -3.583000000
C     4.753000000    -1.345000000    -4.102000000
H     3.802000000    -1.797000000    -3.829000000
C    -1.358000000    -2.433000000    -0.232000000
H    -1.533000000    -3.378000000     0.277000000
C    -0.378000000    -1.499000000     0.083000000
H     0.264000000    -1.755000000     0.923000000
C    -0.227000000    -0.311000000    -0.661000000
H     0.490000000     0.315000000    -0.215000000
C    -1.045000000    -0.050000000    -1.749000000
H    -1.000000000     0.882000000    -2.307000000
C    -1.995000000    -1.032000000    -2.109000000
H    -2.623000000    -0.759000000    -2.954000000
C    -2.105000000    -2.228000000    -1.390000000
C    -3.052000000    -3.320000000    -1.944000000
O    -3.675000000    -3.109000000    -2.951000000
O    -3.220000000    -4.462000000    -1.414000000
O    -1.163000000    -7.404000000    -5.115000000
H    -1.978000000    -7.820000000    -5.393000000
H    -1.411000000    -6.872000000    -4.359000000
O    -8.676000000    -2.566000000    -3.103000000
H    -8.521000000    -3.469000000    -3.378000000
H    -8.196000000    -2.480000000    -2.279000000
O    -7.017000000    -7.583000000    -2.960000000
H    -7.799000000    -8.028000000    -2.633000000
H    -6.345000000    -8.264000000    -2.981000000
O    -7.582000000    -5.137000000    -4.276000000
H    -7.083000000    -4.687000000    -3.594000000
H    -7.717000000    -6.019000000    -3.931000000
O    -4.586000000    -6.450000000    -4.453000000
H    -4.399000000    -6.352000000    -3.519000000
H    -5.355000000    -5.901000000    -4.602000000
O    -0.728000000    -2.788000000    -5.141000000
H    -1.288000000    -2.110000000    -5.519000000
H    -1.316000000    -3.527000000    -4.988000000
O    -4.130000000    -3.977000000    -8.542000000
H    -4.177000000    -4.077000000    -7.591000000
H    -4.343000000    -3.058000000    -8.698000000
O    -1.750000000    -5.980000000    -2.748000000
H    -0.851000000    -6.008000000    -2.421000000
H    -2.165000000    -5.278000000    -2.246000000
O     0.757000000    -2.859000000    -2.939000000
H     0.435000000    -2.767000000    -3.836000000
H     0.272000000    -2.201000000    -2.442000000
O    -1.568000000    -1.141000000    -7.168000000
H    -1.702000000    -0.205000000    -7.020000000
H    -0.979000000    -1.183000000    -7.921000000
O    -6.363000000    -2.028000000    -6.313000000
H    -5.726000000    -2.679000000    -6.018000000
H    -5.857000000    -1.433000000    -6.867000000
O    -4.845000000    -7.859000000     1.010000000
H    -4.981000000    -7.056000000     0.507000000
H    -5.389000000    -7.749000000     1.790000000
O    -1.784000000    -8.499000000     0.681000000
H    -2.522000000    -8.511000000     1.291000000
H    -1.692000000    -7.579000000     0.435000000
O    -3.439000000    -8.772000000    -5.130000000
H    -3.875000000    -7.927000000    -5.244000000
H    -3.546000000    -8.973000000    -4.201000000
O    -3.795000000    -8.448000000    -2.268000000
H    -4.622000000    -8.878000000    -2.049000000
H    -3.905000000    -7.548000000    -1.961000000
O    -6.208000000    -4.015000000    -2.421000000
H    -6.220000000    -3.306000000    -1.778000000
H    -5.336000000    -3.969000000    -2.813000000
O    -5.067000000    -6.185000000    -1.239000000
H    -4.369000000    -5.534000000    -1.310000000
H    -5.831000000    -5.760000000    -1.630000000
O     1.507000000    -5.774000000    -2.516000000
H     1.899000000    -5.833000000    -1.645000000
H     1.272000000    -4.851000000    -2.612000000
O    -4.474000000    -3.796000000    -5.427000000
H    -4.233000000    -4.722000000    -5.405000000
H    -4.054000000    -3.420000000    -4.653000000
