215
-1446.31512
C    -2.370000000    -3.226000000     3.098000000
H    -3.027000000    -2.361000000     3.110000000
C    -1.065000000    -3.115000000     3.566000000
C    -0.296000000    -4.241000000     3.557000000
H     0.740000000    -4.102000000     3.855000000
C    -0.510000000    -1.690000000     3.783000000
O    -1.568000000    -0.913000000     4.369000000
H    -0.261000000    -1.239000000     2.811000000
O     0.697000000    -1.665000000     4.534000000
C     1.651000000    -0.758000000     4.190000000
C     2.695000000    -1.205000000     3.434000000
H     2.710000000    -2.274000000     3.241000000
C     3.586000000    -0.302000000     2.913000000
O     4.507000000    -0.857000000     2.028000000
C     3.476000000     1.057000000     3.200000000
C     4.530000000     2.058000000     2.732000000
H     4.593000000     2.852000000     3.479000000
C     4.206000000     2.615000000     1.377000000
C     3.377000000     3.770000000     1.159000000
H     3.116000000     4.461000000     1.957000000
H     5.540000000     1.644000000     2.684000000
C     2.444000000     1.515000000     4.028000000
H     2.425000000     2.549000000     4.362000000
C     1.491000000     0.608000000     4.532000000
C     0.301000000     1.156000000     5.376000000
H     0.703000000     2.008000000     5.928000000
H    -0.045000000     0.482000000     6.162000000
C    -0.885000000     1.451000000     4.564000000
C    -1.063000000     2.744000000     4.081000000
H    -0.358000000     3.522000000     4.360000000
C    -1.634000000     0.418000000     3.997000000
C    -2.685000000     0.734000000     3.156000000
H    -3.249000000    -0.080000000     2.708000000
C    -2.972000000     2.052000000     2.798000000
O    -3.973000000     2.252000000     1.897000000
C    -3.569000000     2.183000000     0.545000000
C    -4.659000000     1.371000000    -0.162000000
C    -4.702000000     1.478000000    -1.496000000
H    -4.034000000     2.093000000    -2.093000000
C    -5.460000000     0.489000000     0.471000000
H    -5.308000000     0.341000000     1.537000000
O    -3.526000000     3.514000000     0.015000000
H    -2.610000000     1.648000000     0.482000000
C    -2.077000000     3.022000000     3.191000000
C    -2.157000000     4.425000000     2.644000000
H    -1.609000000     5.096000000     3.308000000
H    -3.204000000     4.734000000     2.671000000
C    -1.611000000     4.461000000     1.219000000
C    -0.266000000     4.916000000     1.070000000
H     0.265000000     5.221000000     1.968000000
C    -2.289000000     4.135000000     0.031000000
C    -1.602000000     4.097000000    -1.179000000
H    -2.035000000     3.670000000    -2.080000000
C    -0.262000000     4.407000000    -1.223000000
O     0.338000000     4.123000000    -2.410000000
C     1.201000000     2.974000000    -2.513000000
C     0.990000000     2.270000000    -3.882000000
C    -0.198000000     2.399000000    -4.539000000
H    -0.976000000     3.065000000    -4.175000000
C     1.880000000     1.267000000    -4.360000000
H     2.718000000     0.952000000    -3.744000000
O     2.548000000     3.416000000    -2.419000000
H     0.927000000     2.327000000    -1.666000000
C     0.459000000     4.888000000    -0.120000000
C     1.911000000     5.227000000    -0.196000000
H     2.160000000     5.906000000     0.623000000
H     2.132000000     5.824000000    -1.083000000
C     2.864000000     4.060000000    -0.075000000
C     3.132000000     3.231000000    -1.173000000
C     4.099000000     2.210000000    -1.019000000
H     4.433000000     1.647000000    -1.887000000
C     4.609000000     1.891000000     0.250000000
O     5.243000000     0.716000000     0.408000000
C     4.321000000    -0.429000000     0.640000000
H     3.272000000    -0.141000000     0.477000000
C     4.589000000    -1.633000000    -0.233000000
C     3.913000000    -2.806000000    -0.008000000
H     3.221000000    -2.953000000     0.818000000
C     5.425000000    -1.585000000    -1.356000000
H     6.042000000    -0.718000000    -1.578000000
C     5.418000000    -2.681000000    -2.290000000
O     6.073000000    -2.604000000    -3.500000000
C     4.821000000    -3.894000000    -1.974000000
H     4.897000000    -4.780000000    -2.600000000
C     4.078000000    -3.956000000    -0.796000000
O     3.316000000    -5.062000000    -0.551000000
C     3.063000000    -5.659000000     0.725000000
C     1.783000000    -5.899000000     1.112000000
H     0.992000000    -5.927000000     0.366000000
C     4.055000000    -5.950000000     1.663000000
H     5.085000000    -5.717000000     1.408000000
C     3.797000000    -6.388000000     2.993000000
H     4.600000000    -6.512000000     3.715000000
C     2.490000000    -6.570000000     3.365000000
H     2.129000000    -6.914000000     4.331000000
C     1.479000000    -6.302000000     2.394000000
O     0.172000000    -6.492000000     2.772000000
C    -0.691000000    -5.466000000     2.971000000
C    -2.015000000    -5.523000000     2.519000000
H    -2.523000000    -6.458000000     2.296000000
C    -2.880000000    -4.435000000     2.641000000
O    -4.113000000    -4.464000000     2.093000000
C    -5.210000000    -3.656000000     2.248000000
C    -5.599000000    -2.671000000     1.311000000
H    -5.033000000    -2.315000000     0.454000000
C    -5.974000000    -3.868000000     3.410000000
H    -5.710000000    -4.647000000     4.121000000
C    -7.185000000    -3.215000000     3.593000000
H    -7.822000000    -3.418000000     4.449000000
C    -7.571000000    -2.331000000     2.619000000
H    -8.502000000    -1.771000000     2.645000000
C    -6.798000000    -2.020000000     1.513000000
O    -7.261000000    -1.149000000     0.580000000
C    -6.440000000    -0.282000000    -0.197000000
C    -6.539000000    -0.185000000    -1.580000000
H    -7.144000000    -0.918000000    -2.109000000
C    -5.590000000     0.641000000    -2.227000000
O    -5.478000000     0.613000000    -3.559000000
C    -4.915000000     1.573000000    -4.434000000
C    -3.601000000     1.299000000    -4.827000000
H    -3.113000000     0.417000000    -4.421000000
C    -5.629000000     2.738000000    -4.841000000
H    -6.662000000     2.911000000    -4.553000000
C    -4.912000000     3.620000000    -5.713000000
H    -5.407000000     4.549000000    -5.984000000
C    -3.630000000     3.289000000    -6.158000000
H    -3.162000000     4.047000000    -6.782000000
C    -2.931000000     2.147000000    -5.701000000
O    -1.712000000     1.811000000    -6.272000000
C    -0.449000000     1.735000000    -5.653000000
C     0.395000000     0.738000000    -6.140000000
H     0.180000000     0.200000000    -7.060000000
C     1.574000000     0.490000000    -5.480000000
O     2.421000000    -0.487000000    -5.938000000
C     3.780000000    -0.571000000    -5.600000000
C     4.554000000     0.446000000    -5.955000000
H     4.200000000     1.262000000    -6.580000000
C     5.861000000     0.492000000    -5.477000000
H     6.497000000     1.199000000    -6.003000000
C     6.370000000    -0.462000000    -4.602000000
H     7.381000000    -0.519000000    -4.207000000
C     5.558000000    -1.508000000    -4.225000000
C     4.237000000    -1.571000000    -4.729000000
H     3.513000000    -2.304000000    -4.380000000
C    -0.369000000    -2.399000000    -0.761000000
H    -0.194000000    -3.441000000    -0.506000000
C     0.119000000    -1.341000000    -0.029000000
H     0.787000000    -1.450000000     0.822000000
C     0.009000000    -0.051000000    -0.513000000
H     0.508000000     0.772000000     0.058000000
C    -0.724000000     0.177000000    -1.637000000
H    -0.878000000     1.199000000    -1.975000000
C    -1.464000000    -0.830000000    -2.171000000
H    -2.252000000    -0.493000000    -2.841000000
C    -1.258000000    -2.162000000    -1.808000000
C    -2.083000000    -3.262000000    -2.347000000
O    -3.184000000    -2.976000000    -2.779000000
O    -1.771000000    -4.463000000    -2.231000000
O    -2.642000000    -6.416000000    -7.636000000
H    -2.534000000    -5.720000000    -8.284000000
H    -1.924000000    -6.280000000    -7.017000000
O     3.569000000    -5.134000000    -5.454000000
H     3.817000000    -4.437000000    -6.061000000
H     2.901000000    -4.738000000    -4.895000000
O    -8.286000000    -3.089000000    -2.085000000
H    -7.368000000    -3.293000000    -1.909000000
H    -8.692000000    -3.939000000    -2.257000000
O     0.666000000    -6.683000000    -5.852000000
H     1.322000000    -6.350000000    -5.239000000
H    -0.173000000    -6.495000000    -5.430000000
O    -6.368000000    -6.043000000    -5.346000000
H    -6.199000000    -6.841000000    -4.845000000
H    -6.995000000    -5.555000000    -4.813000000
O    -2.032000000    -3.780000000    -8.533000000
H    -1.763000000    -3.372000000    -9.356000000
H    -2.769000000    -3.249000000    -8.231000000
O    -4.127000000    -1.517000000    -7.577000000
H    -4.419000000    -0.605000000    -7.571000000
H    -4.401000000    -1.862000000    -6.728000000
O    -1.678000000    -5.176000000    -5.003000000
H    -1.540000000    -4.436000000    -5.595000000
H    -1.957000000    -4.776000000    -4.180000000
O     0.455000000    -6.438000000    -2.973000000
H    -0.112000000    -6.722000000    -2.255000000
H    -0.123000000    -5.944000000    -3.554000000
O     1.598000000    -1.183000000    -2.771000000
H     1.270000000    -0.590000000    -3.446000000
H     1.052000000    -1.001000000    -2.006000000
O    -0.772000000    -9.384000000    -2.856000000
H    -1.261000000    -8.803000000    -3.440000000
H     0.088000000    -9.468000000    -3.267000000
O    -7.136000000    -0.904000000    -5.933000000
H    -7.436000000    -1.033000000    -6.833000000
H    -6.313000000    -1.390000000    -5.883000000
O    -2.968000000    -7.642000000    -4.702000000
H    -2.895000000    -6.821000000    -5.188000000
H    -3.910000000    -7.801000000    -4.641000000
O    -1.257000000    -6.667000000    -0.998000000
H    -2.036000000    -7.201000000    -1.153000000
H    -1.465000000    -5.819000000    -1.391000000
O    -4.181000000    -8.306000000     0.022000000
H    -5.096000000    -8.483000000     0.238000000
H    -4.155000000    -7.367000000    -0.162000000
O    -5.692000000    -4.121000000    -2.276000000
H    -5.484000000    -4.972000000    -1.890000000
H    -4.841000000    -3.745000000    -2.499000000
O    -4.038000000    -5.550000000    -0.644000000
H    -3.460000000    -5.006000000    -1.178000000
H    -4.074000000    -5.102000000     0.202000000
O     1.320000000    -3.620000000    -3.823000000
H     1.214000000    -2.690000000    -3.621000000
H     1.315000000    -4.052000000    -2.969000000
O    -4.740000000    -2.393000000    -4.945000000
H    -5.218000000    -3.220000000    -5.010000000
H    -4.245000000    -2.466000000    -4.129000000
