215
-1449.80764
C     2.958000000     2.051000000    -4.042000000
H     3.358000000     1.179000000    -4.552000000
C     3.199000000     2.260000000    -2.688000000
C     2.563000000     3.280000000    -1.991000000
H     2.620000000     3.285000000    -0.905000000
C     3.730000000     1.100000000    -1.844000000
O     4.334000000     0.151000000    -2.631000000
H     2.865000000     0.803000000    -1.234000000
O     4.631000000     1.634000000    -0.847000000
C     4.588000000     1.179000000     0.407000000
C     3.959000000     1.979000000     1.383000000
H     3.546000000     2.930000000     1.057000000
C     3.659000000     1.487000000     2.677000000
O     3.003000000     2.336000000     3.531000000
C     4.005000000     0.184000000     3.010000000
C     3.630000000    -0.476000000     4.310000000
H     4.278000000    -1.295000000     4.629000000
C     2.210000000    -1.030000000     4.133000000
C     1.977000000    -2.342000000     3.834000000
H     2.860000000    -2.975000000     3.807000000
H     3.630000000     0.234000000     5.140000000
C     4.534000000    -0.641000000     2.031000000
H     4.809000000    -1.643000000     2.348000000
C     4.930000000    -0.078000000     0.784000000
C     5.490000000    -1.031000000    -0.301000000
H     6.132000000    -1.766000000     0.189000000
H     6.160000000    -0.479000000    -0.963000000
C     4.388000000    -1.719000000    -1.133000000
C     3.762000000    -2.918000000    -0.766000000
H     4.115000000    -3.372000000     0.157000000
C     3.953000000    -1.114000000    -2.309000000
C     2.936000000    -1.641000000    -3.082000000
H     2.527000000    -1.072000000    -3.913000000
C     2.321000000    -2.918000000    -2.735000000
O     1.145000000    -3.370000000    -3.307000000
C    -0.075000000    -3.209000000    -2.651000000
C    -1.047000000    -2.540000000    -3.511000000
C    -2.402000000    -2.469000000    -3.127000000
H    -2.723000000    -2.933000000    -2.198000000
C    -0.665000000    -1.874000000    -4.726000000
H     0.382000000    -1.850000000    -5.019000000
O    -0.578000000    -4.471000000    -2.115000000
H     0.091000000    -2.524000000    -1.807000000
C     2.730000000    -3.569000000    -1.567000000
C     2.155000000    -4.941000000    -1.221000000
H     2.964000000    -5.381000000    -0.635000000
H     1.934000000    -5.506000000    -2.129000000
C     0.921000000    -4.743000000    -0.363000000
C     1.179000000    -4.821000000     0.998000000
H     2.205000000    -4.849000000     1.357000000
C    -0.390000000    -4.718000000    -0.815000000
C    -1.432000000    -4.617000000     0.047000000
H    -2.431000000    -4.364000000    -0.297000000
C    -1.122000000    -4.576000000     1.469000000
O    -2.176000000    -4.056000000     2.310000000
C    -2.282000000    -2.644000000     2.523000000
C    -3.696000000    -2.068000000     2.326000000
C    -4.632000000    -2.684000000     1.537000000
H    -4.291000000    -3.556000000     0.984000000
C    -4.020000000    -0.844000000     2.920000000
H    -3.207000000    -0.448000000     3.523000000
O    -1.681000000    -2.346000000     3.808000000
H    -1.568000000    -2.140000000     1.856000000
C     0.192000000    -4.646000000     1.957000000
C     0.498000000    -4.359000000     3.451000000
H     1.408000000    -4.927000000     3.656000000
H    -0.290000000    -4.689000000     4.131000000
C     0.686000000    -2.820000000     3.732000000
C    -0.400000000    -1.986000000     3.901000000
C    -0.198000000    -0.624000000     4.199000000
H    -1.024000000     0.046000000     4.420000000
C     1.123000000    -0.164000000     4.396000000
O     1.312000000     1.159000000     4.794000000
C     1.599000000     2.145000000     3.752000000
H     1.129000000     1.693000000     2.866000000
C     0.909000000     3.448000000     4.005000000
C     1.365000000     4.673000000     3.422000000
H     2.291000000     4.622000000     2.855000000
C    -0.390000000     3.408000000     4.469000000
H    -0.773000000     2.423000000     4.722000000
C    -1.233000000     4.512000000     4.349000000
O    -2.560000000     4.462000000     4.629000000
C    -0.783000000     5.643000000     3.618000000
H    -1.476000000     6.417000000     3.299000000
C     0.527000000     5.779000000     3.224000000
O     1.075000000     6.902000000     2.612000000
C     1.735000000     6.757000000     1.416000000
C     1.163000000     6.100000000     0.296000000
H     0.149000000     5.718000000     0.376000000
C     3.046000000     7.280000000     1.163000000
H     3.597000000     7.618000000     2.036000000
C     3.663000000     7.232000000    -0.098000000
H     4.663000000     7.609000000    -0.294000000
C     3.004000000     6.611000000    -1.152000000
H     3.332000000     6.532000000    -2.185000000
C     1.755000000     6.006000000    -0.944000000
O     1.146000000     5.286000000    -2.020000000
C     1.817000000     4.195000000    -2.697000000
C     1.623000000     4.018000000    -4.059000000
H     1.129000000     4.778000000    -4.658000000
C     2.193000000     2.919000000    -4.755000000
O     2.042000000     2.847000000    -6.107000000
C     1.716000000     1.641000000    -6.650000000
C     0.493000000     1.110000000    -6.347000000
H    -0.184000000     1.642000000    -5.683000000
C     2.468000000     1.146000000    -7.702000000
H     3.381000000     1.690000000    -7.930000000
C     2.098000000    -0.073000000    -8.303000000
H     2.558000000    -0.450000000    -9.214000000
C     0.844000000    -0.627000000    -7.935000000
H     0.539000000    -1.579000000    -8.364000000
C     0.077000000    -0.039000000    -6.971000000
O    -1.245000000    -0.499000000    -6.674000000
C    -1.604000000    -1.168000000    -5.504000000
C    -2.966000000    -1.143000000    -5.099000000
H    -3.620000000    -0.521000000    -5.705000000
C    -3.361000000    -1.798000000    -3.915000000
O    -4.713000000    -1.733000000    -3.534000000
C    -5.469000000    -2.702000000    -2.843000000
C    -5.767000000    -2.308000000    -1.561000000
H    -5.407000000    -1.373000000    -1.140000000
C    -5.929000000    -3.959000000    -3.335000000
H    -5.656000000    -4.295000000    -4.331000000
C    -6.642000000    -4.796000000    -2.468000000
H    -7.014000000    -5.741000000    -2.855000000
C    -6.966000000    -4.370000000    -1.217000000
H    -7.680000000    -4.977000000    -0.665000000
C    -6.431000000    -3.196000000    -0.697000000
O    -6.835000000    -2.691000000     0.558000000
C    -5.856000000    -2.074000000     1.384000000
C    -6.142000000    -0.845000000     1.913000000
H    -7.167000000    -0.500000000     1.798000000
C    -5.248000000    -0.216000000     2.715000000
O    -5.565000000     1.097000000     3.194000000
C    -4.832000000     1.630000000     4.197000000
C    -4.779000000     1.028000000     5.470000000
H    -5.424000000     0.173000000     5.658000000
C    -4.097000000     1.683000000     6.516000000
H    -4.198000000     1.287000000     7.523000000
C    -3.307000000     2.839000000     6.261000000
H    -2.839000000     3.358000000     7.094000000
C    -3.238000000     3.337000000     4.983000000
C    -4.018000000     2.743000000     3.970000000
H    -3.954000000     3.198000000     2.985000000
C    -2.221000000     0.481000000    -0.028000000
H    -3.283000000     0.484000000    -0.257000000
C    -1.541000000    -0.693000000     0.058000000
H    -2.062000000    -1.634000000    -0.099000000
C    -0.142000000    -0.645000000     0.349000000
H     0.448000000    -1.580000000     0.383000000
C     0.479000000     0.604000000     0.602000000
H     1.531000000     0.687000000     0.865000000
C    -0.285000000     1.743000000     0.506000000
H     0.065000000     2.753000000     0.705000000
C    -1.642000000     1.746000000     0.125000000
C    -2.381000000     2.995000000    -0.123000000
O    -1.744000000     4.042000000    -0.251000000
O    -3.575000000     2.979000000    -0.253000000
O    -1.604000000     5.429000000    -2.339000000
H    -1.676000000     4.905000000    -1.541000000
H    -0.666000000     5.595000000    -2.433000000
O    -6.978000000     0.864000000    -2.943000000
H    -6.173000000     1.378000000    -2.876000000
H    -6.862000000     0.336000000    -3.732000000
O    -3.812000000     9.870000000    -1.418000000
H    -3.404000000     9.031000000    -1.204000000
H    -3.110000000    10.382000000    -1.819000000
O    -1.726000000     6.229000000    -5.057000000
H    -1.779000000     5.756000000    -4.226000000
H    -0.895000000     6.703000000    -5.009000000
O    -4.680000000     2.313000000    -2.710000000
H    -4.618000000     3.129000000    -3.205000000
H    -4.076000000     2.431000000    -1.976000000
O    -6.030000000     1.769000000     0.322000000
H    -5.747000000     0.956000000     0.739000000
H    -5.221000000     2.261000000     0.183000000
O    -5.248000000     5.257000000    -3.210000000
H    -4.550000000     5.261000000    -2.555000000
H    -6.057000000     5.280000000    -2.699000000
O    -7.426000000     3.807000000    -1.176000000
H    -7.323000000     2.931000000    -0.804000000
H    -8.241000000     3.762000000    -1.674000000
O    -1.124000000     9.155000000     0.622000000
H    -1.443000000     8.406000000     0.117000000
H    -0.802000000     9.769000000    -0.038000000
O    -5.716000000     7.917000000     1.368000000
H    -6.017000000     7.877000000     0.460000000
H    -6.163000000     7.190000000     1.801000000
O    -8.331000000     6.048000000     0.014000000
H    -7.757000000     6.749000000    -0.294000000
H    -7.939000000     5.247000000    -0.333000000
O    -3.082000000     8.633000000     2.579000000
H    -2.346000000     8.778000000     1.985000000
H    -3.845000000     8.569000000     2.004000000
O    -4.486000000     6.934000000     4.585000000
H    -3.860000000     7.264000000     3.941000000
H    -5.115000000     6.428000000     4.071000000
O    -5.457000000     3.142000000    -6.325000000
H    -6.055000000     3.747000000    -6.763000000
H    -5.827000000     3.032000000    -5.449000000
O    -2.650000000     7.343000000    -0.740000000
H    -2.271000000     6.720000000    -1.359000000
H    -3.309000000     6.837000000    -0.264000000
O    -4.216000000     5.668000000     0.593000000
H    -4.519000000     4.827000000     0.252000000
H    -4.678000000     5.769000000     1.426000000
O    -6.570000000     5.762000000     2.687000000
H    -7.214000000     6.171000000     3.265000000
H    -6.950000000     4.911000000     2.469000000
O     0.049000000     0.980000000    -2.785000000
H    -0.352000000     0.583000000    -2.011000000
H     0.231000000     1.883000000    -2.524000000
O    -7.398000000     3.187000000     2.228000000
H    -7.149000000     2.678000000     1.456000000
H    -7.185000000     2.619000000     2.968000000
