215
-1466.02696
C    -2.760000000    -3.280000000     1.992000000
H    -3.354000000    -2.371000000     1.942000000
C    -1.593000000    -3.111000000     2.758000000
C    -0.700000000    -4.151000000     2.898000000
H     0.265000000    -4.000000000     3.375000000
C    -1.309000000    -1.812000000     3.407000000
O    -2.486000000    -1.168000000     3.958000000
H    -0.950000000    -1.107000000     2.642000000
O    -0.307000000    -1.922000000     4.471000000
C     0.695000000    -1.088000000     4.439000000
C     1.901000000    -1.507000000     3.813000000
H     1.982000000    -2.543000000     3.495000000
C     2.875000000    -0.611000000     3.508000000
O     3.989000000    -1.043000000     2.771000000
C     2.719000000     0.751000000     3.787000000
C     3.868000000     1.669000000     3.522000000
H     3.799000000     2.505000000     4.222000000
C     3.681000000     2.289000000     2.165000000
C     2.951000000     3.467000000     1.870000000
H     2.499000000     4.048000000     2.669000000
H     4.817000000     1.178000000     3.742000000
C     1.502000000     1.210000000     4.436000000
H     1.475000000     2.272000000     4.663000000
C     0.529000000     0.300000000     4.730000000
C    -0.712000000     0.784000000     5.428000000
H    -0.646000000     1.719000000     5.989000000
H    -1.087000000     0.005000000     6.095000000
C    -1.701000000     1.130000000     4.337000000
C    -1.738000000     2.404000000     3.932000000
H    -1.036000000     3.181000000     4.223000000
C    -2.619000000     0.210000000     3.747000000
C    -3.494000000     0.607000000     2.767000000
H    -4.127000000    -0.150000000     2.310000000
C    -3.584000000     2.001000000     2.445000000
O    -4.344000000     2.447000000     1.397000000
C    -3.859000000     2.278000000     0.067000000
C    -4.713000000     1.494000000    -0.854000000
C    -4.539000000     1.592000000    -2.183000000
H    -3.933000000     2.401000000    -2.583000000
C    -5.665000000     0.508000000    -0.422000000
H    -5.723000000     0.269000000     0.637000000
O    -3.489000000     3.609000000    -0.415000000
H    -2.908000000     1.731000000     0.137000000
C    -2.667000000     2.865000000     2.962000000
C    -2.558000000     4.329000000     2.462000000
H    -2.070000000     4.892000000     3.261000000
H    -3.558000000     4.764000000     2.401000000
C    -1.791000000     4.449000000     1.164000000
C    -0.416000000     4.747000000     1.301000000
H    -0.042000000     5.016000000     2.286000000
C    -2.271000000     4.114000000    -0.130000000
C    -1.448000000     4.277000000    -1.259000000
H    -1.760000000     3.939000000    -2.244000000
C    -0.091000000     4.542000000    -1.084000000
O     0.808000000     4.472000000    -2.195000000
C     1.619000000     3.255000000    -2.183000000
C     1.625000000     2.616000000    -3.563000000
C     0.486000000     2.661000000    -4.346000000
H    -0.469000000     3.053000000    -4.008000000
C     2.806000000     2.045000000    -4.049000000
H     3.690000000     1.999000000    -3.417000000
O     2.934000000     3.505000000    -1.714000000
H     1.198000000     2.543000000    -1.458000000
C     0.409000000     4.871000000     0.178000000
C     1.827000000     5.215000000     0.397000000
H     1.789000000     5.993000000     1.162000000
H     2.274000000     5.742000000    -0.449000000
C     2.756000000     3.996000000     0.588000000
C     3.290000000     3.239000000    -0.449000000
C     4.062000000     2.122000000    -0.192000000
H     4.558000000     1.635000000    -1.027000000
C     4.295000000     1.661000000     1.071000000
O     4.934000000     0.491000000     1.148000000
C     3.993000000    -0.651000000     1.331000000
H     3.009000000    -0.345000000     0.947000000
C     4.450000000    -1.858000000     0.575000000
C     4.387000000    -3.185000000     1.033000000
H     4.204000000    -3.477000000     2.063000000
C     4.719000000    -1.679000000    -0.808000000
H     4.706000000    -0.659000000    -1.183000000
C     4.926000000    -2.759000000    -1.670000000
O     4.894000000    -2.483000000    -2.996000000
C     4.862000000    -4.036000000    -1.113000000
H     4.952000000    -4.886000000    -1.785000000
C     4.708000000    -4.216000000     0.234000000
O     4.345000000    -5.512000000     0.663000000
C     3.477000000    -5.970000000     1.612000000
C     2.122000000    -5.978000000     1.361000000
H     1.680000000    -5.792000000     0.385000000
C     4.036000000    -6.294000000     2.869000000
H     5.115000000    -6.417000000     2.901000000
C     3.172000000    -6.773000000     3.853000000
H     3.578000000    -7.076000000     4.815000000
C     1.827000000    -6.883000000     3.636000000
H     1.209000000    -7.284000000     4.435000000
C     1.307000000    -6.466000000     2.388000000
O    -0.087000000    -6.556000000     2.291000000
C    -0.925000000    -5.410000000     2.265000000
C    -2.106000000    -5.561000000     1.494000000
H    -2.208000000    -6.560000000     1.078000000
C    -2.997000000    -4.523000000     1.415000000
O    -4.040000000    -4.715000000     0.541000000
C    -5.259000000    -4.043000000     0.640000000
C    -5.462000000    -2.858000000    -0.106000000
H    -4.758000000    -2.550000000    -0.875000000
C    -6.192000000    -4.423000000     1.567000000
H    -6.007000000    -5.285000000     2.203000000
C    -7.455000000    -3.841000000     1.741000000
H    -8.158000000    -4.149000000     2.511000000
C    -7.659000000    -2.742000000     0.938000000
H    -8.622000000    -2.240000000     1.001000000
C    -6.730000000    -2.271000000     0.008000000
O    -7.133000000    -1.311000000    -0.889000000
C    -6.321000000    -0.264000000    -1.364000000
C    -6.232000000    -0.034000000    -2.688000000
H    -6.777000000    -0.626000000    -3.419000000
C    -5.303000000     0.941000000    -3.135000000
O    -4.972000000     1.101000000    -4.470000000
C    -4.101000000     2.020000000    -5.022000000
C    -2.812000000     1.600000000    -5.362000000
H    -2.562000000     0.543000000    -5.317000000
C    -4.488000000     3.330000000    -5.214000000
H    -5.525000000     3.572000000    -4.994000000
C    -3.610000000     4.218000000    -5.828000000
H    -3.977000000     5.228000000    -5.990000000
C    -2.323000000     3.819000000    -6.125000000
H    -1.595000000     4.509000000    -6.543000000
C    -1.923000000     2.482000000    -5.934000000
O    -0.676000000     1.988000000    -6.312000000
C     0.600000000     2.178000000    -5.636000000
C     1.721000000     1.618000000    -6.147000000
H     1.808000000     1.079000000    -7.087000000
C     2.846000000     1.560000000    -5.375000000
O     4.019000000     1.222000000    -5.912000000
C     4.957000000     0.551000000    -5.092000000
C     6.134000000     1.143000000    -4.678000000
H     6.417000000     2.111000000    -5.083000000
C     6.985000000     0.547000000    -3.755000000
H     7.950000000     1.006000000    -3.555000000
C     6.604000000    -0.673000000    -3.111000000
H     7.197000000    -1.149000000    -2.333000000
C     5.389000000    -1.278000000    -3.553000000
C     4.573000000    -0.664000000    -4.481000000
H     3.658000000    -1.183000000    -4.757000000
C    -0.379000000    -2.801000000    -0.281000000
H    -0.146000000    -3.772000000     0.148000000
C     0.201000000    -1.756000000     0.412000000
H     0.945000000    -2.009000000     1.163000000
C    -0.100000000    -0.446000000     0.179000000
H     0.384000000     0.305000000     0.716000000
C    -1.025000000    -0.076000000    -0.795000000
H    -1.235000000     0.945000000    -1.105000000
C    -1.787000000    -1.168000000    -1.328000000
H    -2.495000000    -0.865000000    -2.095000000
C    -1.486000000    -2.548000000    -1.105000000
C    -2.173000000    -3.618000000    -1.991000000
O    -3.094000000    -3.365000000    -2.741000000
O    -1.764000000    -4.782000000    -1.898000000
O     2.484000000    -4.863000000    -5.593000000
H     3.168000000    -5.503000000    -5.394000000
H     2.456000000    -4.295000000    -4.823000000
O    -7.658000000    -3.098000000    -4.398000000
H    -7.461000000    -3.376000000    -3.503000000
H    -6.970000000    -3.497000000    -4.930000000
O    -3.479000000    -5.758000000    -5.885000000
H    -2.800000000    -5.926000000    -5.231000000
H    -3.198000000    -4.953000000    -6.321000000
O     0.251000000    -1.500000000    -6.176000000
H     0.714000000    -1.246000000    -5.377000000
H    -0.665000000    -1.578000000    -5.907000000
O    -2.601000000    -3.756000000    -7.350000000
H    -1.776000000    -3.383000000    -7.038000000
H    -2.506000000    -3.783000000    -8.302000000
O     0.814000000    -5.285000000    -2.098000000
H     1.197000000    -4.749000000    -2.792000000
H    -0.039000000    -4.885000000    -1.930000000
O    -0.669000000    -8.954000000    -3.738000000
H    -1.055000000    -8.172000000    -4.133000000
H    -0.098000000    -8.617000000    -3.048000000
O     1.127000000    -0.655000000    -3.705000000
H     0.381000000    -0.639000000    -3.105000000
H     1.296000000     0.266000000    -3.903000000
O    -5.800000000    -3.815000000    -6.799000000
H    -6.118000000    -3.761000000    -7.701000000
H    -5.435000000    -4.696000000    -6.726000000
O    -2.084000000    -1.548000000    -4.636000000
H    -2.903000000    -1.452000000    -5.120000000
H    -2.269000000    -2.224000000    -3.983000000
O    -5.806000000    -7.379000000    -0.064000000
H    -5.058000000    -7.425000000    -0.659000000
H    -5.441000000    -7.586000000     0.796000000
O    -1.741000000    -8.559000000    -0.673000000
H    -2.178000000    -9.316000000    -0.284000000
H    -2.455000000    -8.014000000    -1.005000000
O    -4.372000000    -1.488000000    -6.122000000
H    -4.613000000    -2.385000000    -6.353000000
H    -5.066000000    -0.948000000    -6.501000000
O     0.711000000    -8.036000000    -1.589000000
H     0.649000000    -7.086000000    -1.689000000
H     0.005000000    -8.260000000    -0.982000000
O    -3.675000000    -6.852000000    -1.641000000
H    -4.114000000    -6.804000000    -2.490000000
H    -3.166000000    -6.042000000    -1.589000000
O    -5.035000000    -4.528000000    -3.684000000
H    -4.554000000    -5.104000000    -4.278000000
H    -4.370000000    -3.935000000    -3.334000000
O    -7.219000000    -5.691000000    -2.466000000
H    -7.003000000    -5.883000000    -1.554000000
H    -6.487000000    -5.160000000    -2.779000000
O     2.034000000    -3.151000000    -3.550000000
H     1.628000000    -2.300000000    -3.384000000
H     2.892000000    -3.094000000    -3.129000000
O    -1.717000000    -6.251000000    -4.133000000
H    -0.906000000    -5.900000000    -4.502000000
H    -1.829000000    -5.777000000    -3.309000000
