215
-1482.92189
C    -2.540000000    -2.423000000     3.589000000
H    -3.092000000    -1.526000000     3.860000000
C    -1.120000000    -2.523000000     3.562000000
C    -0.542000000    -3.755000000     3.246000000
H     0.537000000    -3.856000000     3.164000000
C    -0.193000000    -1.389000000     3.901000000
O    -0.744000000    -0.495000000     4.786000000
H    -0.063000000    -0.803000000     2.979000000
O     1.129000000    -1.815000000     4.375000000
C     2.201000000    -1.177000000     3.841000000
C     2.908000000    -1.821000000     2.845000000
H     2.729000000    -2.846000000     2.529000000
C     3.989000000    -1.168000000     2.171000000
O     4.570000000    -1.853000000     1.150000000
C     4.274000000     0.206000000     2.431000000
C     5.361000000     0.955000000     1.614000000
H     5.620000000     1.802000000     2.253000000
C     4.736000000     1.506000000     0.298000000
C     4.167000000     2.774000000     0.358000000
H     4.331000000     3.392000000     1.237000000
H     6.247000000     0.355000000     1.397000000
C     3.597000000     0.788000000     3.521000000
H     3.801000000     1.828000000     3.766000000
C     2.524000000     0.118000000     4.168000000
C     1.769000000     0.981000000     5.216000000
H     2.450000000     1.753000000     5.580000000
H     1.441000000     0.391000000     6.074000000
C     0.509000000     1.645000000     4.622000000
C     0.527000000     2.936000000     4.246000000
H     1.360000000     3.609000000     4.427000000
C    -0.647000000     0.853000000     4.438000000
C    -1.847000000     1.462000000     3.976000000
H    -2.757000000     0.870000000     3.934000000
C    -1.774000000     2.768000000     3.444000000
O    -2.933000000     3.191000000     2.734000000
C    -2.932000000     2.942000000     1.303000000
C    -4.265000000     2.447000000     0.705000000
C    -4.684000000     2.813000000    -0.559000000
H    -4.067000000     3.500000000    -1.133000000
C    -5.051000000     1.529000000     1.438000000
H    -4.736000000     1.386000000     2.469000000
O    -2.426000000     4.118000000     0.653000000
H    -2.202000000     2.137000000     1.130000000
C    -0.556000000     3.479000000     3.472000000
C    -0.339000000     4.776000000     2.794000000
H     0.591000000     5.179000000     3.200000000
H    -1.232000000     5.384000000     2.954000000
C    -0.083000000     4.473000000     1.297000000
C     1.231000000     4.622000000     0.794000000
H     2.012000000     4.962000000     1.469000000
C    -1.092000000     4.264000000     0.377000000
C    -0.806000000     4.132000000    -0.993000000
H    -1.613000000     3.930000000    -1.693000000
C     0.464000000     4.334000000    -1.455000000
O     0.721000000     4.011000000    -2.779000000
C     1.308000000     2.715000000    -3.015000000
C     0.752000000     2.070000000    -4.248000000
C    -0.616000000     2.194000000    -4.366000000
H    -1.222000000     2.709000000    -3.625000000
C     1.436000000     1.253000000    -5.110000000
H     2.516000000     1.146000000    -5.036000000
O     2.766000000     2.786000000    -3.093000000
H     1.061000000     2.117000000    -2.125000000
C     1.532000000     4.557000000    -0.503000000
C     2.952000000     4.717000000    -1.005000000
H     3.404000000     5.551000000    -0.464000000
H     2.955000000     5.011000000    -2.057000000
C     3.595000000     3.336000000    -0.838000000
C     3.539000000     2.526000000    -1.981000000
C     3.981000000     1.192000000    -1.932000000
H     3.704000000     0.508000000    -2.730000000
C     4.607000000     0.650000000    -0.783000000
O     5.000000000    -0.648000000    -0.801000000
C     4.104000000    -1.580000000    -0.174000000
H     3.113000000    -1.103000000    -0.159000000
C     3.995000000    -2.825000000    -0.980000000
C     3.705000000    -4.045000000    -0.339000000
H     3.610000000    -4.143000000     0.739000000
C     3.961000000    -2.835000000    -2.419000000
H     4.250000000    -1.906000000    -2.903000000
C     3.529000000    -3.990000000    -3.129000000
O     3.466000000    -3.905000000    -4.487000000
C     3.212000000    -5.151000000    -2.473000000
H     2.832000000    -5.999000000    -3.036000000
C     3.374000000    -5.192000000    -1.086000000
O     2.972000000    -6.365000000    -0.531000000
C     2.367000000    -6.482000000     0.720000000
C     1.043000000    -6.170000000     0.941000000
H     0.483000000    -5.914000000     0.045000000
C     3.100000000    -7.056000000     1.765000000
H     4.159000000    -7.229000000     1.594000000
C     2.498000000    -7.355000000     2.948000000
H     3.102000000    -7.798000000     3.735000000
C     1.150000000    -6.955000000     3.216000000
H     0.754000000    -7.132000000     4.213000000
C     0.427000000    -6.327000000     2.163000000
O    -0.898000000    -6.000000000     2.308000000
C    -1.438000000    -4.781000000     2.754000000
C    -2.813000000    -4.685000000     2.825000000
H    -3.452000000    -5.525000000     2.564000000
C    -3.341000000    -3.501000000     3.254000000
O    -4.613000000    -3.540000000     3.563000000
C    -5.430000000    -2.424000000     3.688000000
C    -5.772000000    -1.585000000     2.582000000
H    -5.386000000    -1.796000000     1.587000000
C    -5.975000000    -2.190000000     4.965000000
H    -5.677000000    -2.849000000     5.776000000
C    -7.035000000    -1.234000000     5.041000000
H    -7.598000000    -1.037000000     5.950000000
C    -7.440000000    -0.447000000     3.978000000
H    -8.238000000     0.287000000     4.049000000
C    -6.735000000    -0.558000000     2.754000000
O    -7.044000000     0.190000000     1.613000000
C    -6.235000000     0.958000000     0.900000000
C    -6.621000000     1.361000000    -0.428000000
H    -7.439000000     0.858000000    -0.937000000
C    -5.820000000     2.253000000    -1.154000000
O    -6.164000000     2.458000000    -2.491000000
C    -5.293000000     2.879000000    -3.453000000
C    -4.500000000     2.040000000    -4.196000000
H    -4.614000000     0.968000000    -4.056000000
C    -5.296000000     4.262000000    -3.660000000
H    -5.942000000     4.912000000    -3.077000000
C    -4.461000000     4.816000000    -4.566000000
H    -4.425000000     5.864000000    -4.853000000
C    -3.479000000     4.019000000    -5.292000000
H    -2.731000000     4.471000000    -5.938000000
C    -3.526000000     2.612000000    -5.070000000
O    -2.653000000     1.748000000    -5.729000000
C    -1.295000000     1.616000000    -5.490000000
C    -0.626000000     0.717000000    -6.301000000
H    -1.140000000     0.243000000    -7.133000000
C     0.731000000     0.522000000    -6.084000000
O     1.443000000    -0.309000000    -6.887000000
C     2.546000000    -1.001000000    -6.494000000
C     3.821000000    -0.575000000    -6.920000000
H     3.817000000     0.382000000    -7.435000000
C     4.947000000    -1.187000000    -6.450000000
H     5.921000000    -0.736000000    -6.621000000
C     4.827000000    -2.286000000    -5.613000000
H     5.690000000    -2.836000000    -5.249000000
C     3.567000000    -2.759000000    -5.230000000
C     2.441000000    -2.175000000    -5.714000000
H     1.425000000    -2.507000000    -5.519000000
C    -0.810000000    -2.450000000    -0.072000000
H    -1.045000000    -3.510000000    -0.009000000
C     0.313000000    -1.922000000     0.447000000
H     1.023000000    -2.577000000     0.944000000
C     0.729000000    -0.651000000     0.300000000
H     1.612000000    -0.257000000     0.729000000
C    -0.167000000     0.246000000    -0.328000000
H     0.032000000     1.313000000    -0.397000000
C    -1.402000000    -0.212000000    -0.808000000
H    -2.096000000     0.462000000    -1.304000000
C    -1.728000000    -1.609000000    -0.762000000
C    -3.032000000    -2.108000000    -1.409000000
O    -3.769000000    -1.378000000    -2.067000000
O    -3.231000000    -3.315000000    -1.257000000
O    -6.685000000    -6.056000000     0.615000000
H    -6.278000000    -6.196000000     1.470000000
H    -6.341000000    -5.213000000     0.322000000
O     0.839000000    -6.661000000    -4.465000000
H     0.470000000    -5.787000000    -4.342000000
H     0.204000000    -7.249000000    -4.055000000
O    -4.853000000    -7.879000000    -2.646000000
H    -4.979000000    -8.406000000    -3.435000000
H    -5.173000000    -7.009000000    -2.884000000
O    -3.963000000    -1.967000000    -7.402000000
H    -3.348000000    -1.576000000    -8.022000000
H    -3.781000000    -1.526000000    -6.573000000
O    -7.376000000    -0.083000000    -3.952000000
H    -7.697000000    -0.595000000    -4.694000000
H    -8.111000000     0.483000000    -3.715000000
O    -0.465000000    -4.402000000    -4.012000000
H    -0.937000000    -4.388000000    -4.844000000
H    -0.492000000    -3.496000000    -3.705000000
O    -2.105000000    -3.806000000    -6.363000000
H    -2.619000000    -3.783000000    -7.170000000
H    -2.393000000    -3.036000000    -5.873000000
O    -5.625000000    -3.618000000    -0.169000000
H    -6.191000000    -3.104000000    -0.745000000
H    -4.762000000    -3.576000000    -0.581000000
O    -8.259000000    -4.112000000    -2.842000000
H    -9.197000000    -3.959000000    -2.722000000
H    -7.860000000    -3.249000000    -2.733000000
O    -0.414000000    -1.621000000    -3.442000000
H     0.111000000    -2.028000000    -2.752000000
H    -0.496000000    -0.707000000    -3.172000000
O    -7.620000000    -6.859000000    -3.448000000
H    -7.622000000    -5.931000000    -3.214000000
H    -7.183000000    -7.290000000    -2.714000000
O    -3.585000000    -7.281000000    -0.345000000
H    -4.076000000    -7.585000000    -1.108000000
H    -2.981000000    -6.626000000    -0.694000000
O    -6.030000000     0.524000000    -6.701000000
H    -5.924000000     0.389000000    -5.759000000
H    -6.319000000    -0.325000000    -7.034000000
O    -5.029000000    -4.967000000    -2.856000000
H    -5.668000000    -4.259000000    -2.773000000
H    -4.270000000    -4.665000000    -2.358000000
O    -1.694000000    -8.130000000    -3.528000000
H    -2.072000000    -7.252000000    -3.492000000
H    -1.723000000    -8.440000000    -2.622000000
O    -3.941000000    -6.006000000    -5.221000000
H    -4.302000000    -5.734000000    -4.377000000
H    -3.241000000    -5.376000000    -5.396000000
O    -6.168000000    -2.170000000    -2.570000000
H    -6.717000000    -1.408000000    -2.754000000
H    -5.347000000    -1.800000000    -2.245000000
O    -1.786000000    -5.499000000    -1.528000000
H    -1.297000000    -5.272000000    -2.319000000
H    -2.229000000    -4.688000000    -1.278000000
O    -3.047000000    -1.909000000    -4.557000000
H    -3.360000000    -1.735000000    -3.670000000
H    -2.211000000    -1.444000000    -4.612000000
