215
-1465.55950
C    -2.711000000    -2.963000000     3.121000000
H    -3.271000000    -2.032000000     3.091000000
C    -1.399000000    -2.971000000     3.623000000
C    -0.580000000    -4.077000000     3.550000000
H     0.478000000    -4.108000000     3.797000000
C    -0.708000000    -1.663000000     3.960000000
O    -1.627000000    -0.792000000     4.791000000
H    -0.491000000    -1.184000000     2.994000000
O     0.585000000    -1.814000000     4.659000000
C     1.595000000    -1.033000000     4.148000000
C     2.389000000    -1.567000000     3.161000000
H     2.254000000    -2.589000000     2.816000000
C     3.487000000    -0.832000000     2.685000000
O     4.264000000    -1.415000000     1.678000000
C     3.688000000     0.525000000     3.105000000
C     4.806000000     1.366000000     2.491000000
H     5.068000000     2.298000000     2.995000000
C     4.396000000     1.957000000     1.142000000
C     3.706000000     3.190000000     1.051000000
H     3.669000000     3.803000000     1.948000000
H     5.690000000     0.725000000     2.472000000
C     2.823000000     1.075000000     3.992000000
H     2.985000000     2.084000000     4.362000000
C     1.730000000     0.326000000     4.503000000
C     0.686000000     0.965000000     5.426000000
H     1.180000000     1.807000000     5.915000000
H     0.326000000     0.226000000     6.144000000
C    -0.475000000     1.345000000     4.663000000
C    -0.370000000     2.592000000     4.057000000
H     0.503000000     3.218000000     4.226000000
C    -1.587000000     0.526000000     4.427000000
C    -2.639000000     0.959000000     3.612000000
H    -3.506000000     0.336000000     3.407000000
C    -2.579000000     2.257000000     3.082000000
O    -3.642000000     2.723000000     2.256000000
C    -3.367000000     2.669000000     0.798000000
C    -4.454000000     1.928000000     0.045000000
C    -4.596000000     2.175000000    -1.305000000
H    -3.984000000     2.908000000    -1.824000000
C    -5.282000000     0.993000000     0.667000000
H    -5.185000000     0.803000000     1.733000000
O    -3.104000000     4.006000000     0.307000000
H    -2.458000000     2.063000000     0.661000000
C    -1.440000000     3.042000000     3.288000000
C    -1.486000000     4.437000000     2.724000000
H    -0.857000000     5.006000000     3.413000000
H    -2.487000000     4.866000000     2.801000000
C    -0.961000000     4.489000000     1.284000000
C     0.346000000     4.871000000     1.117000000
H     0.990000000     4.979000000     1.986000000
C    -1.803000000     4.365000000     0.190000000
C    -1.224000000     4.409000000    -1.087000000
H    -1.877000000     4.255000000    -1.942000000
C     0.149000000     4.615000000    -1.234000000
O     0.744000000     4.349000000    -2.488000000
C     1.482000000     3.056000000    -2.655000000
C     1.087000000     2.339000000    -3.907000000
C    -0.247000000     2.261000000    -4.327000000
H    -0.927000000     2.817000000    -3.687000000
C     1.999000000     1.519000000    -4.628000000
H     2.995000000     1.523000000    -4.192000000
O     2.902000000     3.275000000    -2.529000000
H     1.417000000     2.377000000    -1.791000000
C     0.955000000     4.813000000    -0.159000000
C     2.508000000     5.013000000    -0.220000000
H     2.765000000     5.688000000     0.599000000
H     2.683000000     5.657000000    -1.084000000
C     3.222000000     3.650000000    -0.159000000
C     3.429000000     2.883000000    -1.308000000
C     4.051000000     1.627000000    -1.250000000
H     4.152000000     1.098000000    -2.194000000
C     4.583000000     1.239000000    -0.081000000
O     5.080000000    -0.094000000    -0.085000000
C     4.103000000    -1.102000000     0.282000000
H     3.150000000    -0.572000000     0.138000000
C     4.074000000    -2.341000000    -0.633000000
C     3.470000000    -3.472000000    -0.167000000
H     3.039000000    -3.560000000     0.827000000
C     4.484000000    -2.187000000    -1.976000000
H     4.780000000    -1.224000000    -2.383000000
C     4.286000000    -3.288000000    -2.765000000
O     4.610000000    -3.341000000    -4.090000000
C     3.719000000    -4.485000000    -2.302000000
H     3.610000000    -5.322000000    -2.986000000
C     3.274000000    -4.563000000    -0.989000000
O     2.737000000    -5.725000000    -0.521000000
C     2.426000000    -6.039000000     0.765000000
C     1.114000000    -6.189000000     1.232000000
H     0.308000000    -5.878000000     0.573000000
C     3.489000000    -6.387000000     1.576000000
H     4.516000000    -6.188000000     1.282000000
C     3.239000000    -6.681000000     2.929000000
H     4.061000000    -6.880000000     3.612000000
C     1.958000000    -6.717000000     3.425000000
H     1.840000000    -6.874000000     4.494000000
C     0.903000000    -6.530000000     2.548000000
O    -0.408000000    -6.478000000     3.027000000
C    -1.184000000    -5.292000000     3.070000000
C    -2.552000000    -5.388000000     2.829000000
H    -2.980000000    -6.336000000     2.514000000
C    -3.296000000    -4.204000000     2.782000000
O    -4.591000000    -4.288000000     2.363000000
C    -5.504000000    -3.251000000     2.589000000
C    -5.909000000    -2.509000000     1.516000000
H    -5.516000000    -2.584000000     0.505000000
C    -6.011000000    -3.052000000     3.862000000
H    -5.631000000    -3.692000000     4.655000000
C    -6.818000000    -1.966000000     4.132000000
H    -7.000000000    -1.747000000     5.182000000
C    -7.220000000    -1.221000000     2.997000000
H    -7.951000000    -0.423000000     3.095000000
C    -6.744000000    -1.465000000     1.718000000
O    -7.101000000    -0.553000000     0.707000000
C    -6.277000000     0.292000000     0.023000000
C    -6.466000000     0.568000000    -1.332000000
H    -7.303000000     0.134000000    -1.874000000
C    -5.601000000     1.435000000    -1.978000000
O    -5.778000000     1.792000000    -3.307000000
C    -4.852000000     2.469000000    -4.024000000
C    -3.842000000     1.747000000    -4.745000000
H    -3.847000000     0.660000000    -4.731000000
C    -5.013000000     3.850000000    -4.101000000
H    -5.815000000     4.335000000    -3.549000000
C    -4.067000000     4.587000000    -4.857000000
H    -4.250000000     5.642000000    -5.046000000
C    -3.024000000     3.884000000    -5.516000000
H    -2.364000000     4.494000000    -6.128000000
C    -2.915000000     2.424000000    -5.484000000
O    -1.839000000     1.724000000    -6.066000000
C    -0.547000000     1.705000000    -5.580000000
C     0.353000000     0.882000000    -6.232000000
H     0.016000000     0.265000000    -7.060000000
C     1.638000000     0.771000000    -5.724000000
O     2.537000000     0.076000000    -6.537000000
C     3.663000000    -0.414000000    -6.063000000
C     4.853000000    -0.001000000    -6.635000000
H     4.829000000     0.691000000    -7.473000000
C     6.012000000    -0.786000000    -6.420000000
H     6.963000000    -0.597000000    -6.912000000
C     5.940000000    -1.882000000    -5.556000000
H     6.791000000    -2.549000000    -5.441000000
C     4.750000000    -2.198000000    -4.892000000
C     3.597000000    -1.464000000    -5.197000000
H     2.632000000    -1.760000000    -4.791000000
C    -1.425000000    -1.551000000     0.003000000
H    -1.547000000    -2.504000000     0.511000000
C    -0.285000000    -0.846000000     0.386000000
H     0.389000000    -1.287000000     1.116000000
C     0.035000000     0.338000000    -0.276000000
H     0.879000000     1.024000000     0.005000000
C    -0.784000000     0.858000000    -1.260000000
H    -0.532000000     1.810000000    -1.720000000
C    -1.894000000     0.080000000    -1.645000000
H    -2.582000000     0.497000000    -2.376000000
C    -2.158000000    -1.192000000    -1.107000000
C    -3.370000000    -2.111000000    -1.603000000
O    -4.028000000    -1.856000000    -2.579000000
O    -3.489000000    -3.184000000    -1.075000000
O    -9.150000000    -4.354000000     1.250000000
H    -8.974000000    -3.727000000     0.548000000
H    -8.500000000    -5.046000000     1.122000000
O    -7.159000000    -6.481000000     0.387000000
H    -6.513000000    -6.606000000     1.083000000
H    -6.637000000    -6.290000000    -0.392000000
O   -10.089000000    -0.130000000    -0.382000000
H   -10.804000000    -0.759000000    -0.281000000
H    -9.296000000    -0.642000000    -0.226000000
O    -4.177000000    -0.488000000    -6.827000000
H    -4.146000000    -0.479000000    -7.784000000
H    -3.603000000    -1.212000000    -6.576000000
O    -8.773000000    -3.311000000    -1.362000000
H    -9.284000000    -3.408000000    -2.166000000
H    -7.905000000    -3.041000000    -1.662000000
O    -2.375000000    -7.989000000    -0.582000000
H    -2.337000000    -7.085000000    -0.271000000
H    -1.735000000    -8.455000000    -0.043000000
O    -7.667000000    -5.902000000    -3.472000000
H    -6.850000000    -5.441000000    -3.282000000
H    -8.033000000    -5.440000000    -4.226000000
O    -0.224000000    -4.418000000    -4.618000000
H    -0.115000000    -3.571000000    -4.187000000
H    -0.275000000    -5.048000000    -3.899000000
O    -5.442000000    -5.757000000    -1.764000000
H    -5.619000000    -4.860000000    -2.048000000
H    -4.494000000    -5.782000000    -1.629000000
O    -4.094000000    -5.523000000    -6.204000000
H    -3.810000000    -5.218000000    -5.342000000
H    -4.565000000    -6.337000000    -6.026000000
O    -0.023000000    -1.881000000    -3.210000000
H     0.789000000    -1.380000000    -3.121000000
H    -0.595000000    -1.531000000    -2.527000000
O    -6.455000000    -2.096000000    -5.701000000
H    -5.622000000    -1.679000000    -5.480000000
H    -7.059000000    -1.367000000    -5.841000000
O    -0.799000000    -2.353000000    -7.221000000
H    -1.214000000    -3.200000000    -7.387000000
H    -1.018000000    -2.153000000    -6.311000000
O    -3.294000000    -4.737000000    -3.701000000
H    -3.613000000    -3.992000000    -3.191000000
H    -2.442000000    -4.943000000    -3.316000000
O    -0.976000000    -6.301000000    -2.872000000
H    -0.807000000    -7.054000000    -3.438000000
H    -1.283000000    -6.684000000    -2.050000000
O    -6.431000000    -2.885000000    -2.536000000
H    -6.696000000    -2.590000000    -3.407000000
H    -5.553000000    -2.523000000    -2.418000000
O    -3.187000000    -5.473000000    -0.104000000
H    -3.198000000    -4.585000000    -0.462000000
H    -3.699000000    -5.412000000     0.703000000
O    -2.840000000    -2.298000000    -4.981000000
H    -3.174000000    -1.956000000    -4.152000000
H    -3.019000000    -3.237000000    -4.943000000
O    -5.672000000    -3.700000000    -8.073000000
H    -5.537000000    -3.484000000    -7.150000000
H    -6.035000000    -4.585000000    -8.061000000
