215
-1468.64397
C    -2.834000000    -2.374000000     2.933000000
H    -3.182000000    -1.351000000     3.050000000
C    -1.518000000    -2.714000000     3.204000000
C    -1.151000000    -4.074000000     3.082000000
H    -0.143000000    -4.386000000     3.345000000
C    -0.539000000    -1.675000000     3.669000000
O    -1.018000000    -0.939000000     4.822000000
H    -0.295000000    -0.989000000     2.844000000
O     0.710000000    -2.253000000     4.007000000
C     1.901000000    -1.676000000     3.549000000
C     2.674000000    -2.399000000     2.595000000
H     2.305000000    -3.321000000     2.155000000
C     3.832000000    -1.809000000     2.116000000
O     4.309000000    -2.456000000     1.062000000
C     4.223000000    -0.524000000     2.485000000
C     5.433000000     0.185000000     1.945000000
H     5.926000000     0.839000000     2.667000000
C     4.988000000     0.960000000     0.690000000
C     4.610000000     2.231000000     0.792000000
H     4.798000000     2.735000000     1.737000000
H     6.230000000    -0.519000000     1.696000000
C     3.479000000     0.080000000     3.472000000
H     3.866000000     1.027000000     3.839000000
C     2.310000000    -0.435000000     4.071000000
C     1.669000000     0.251000000     5.244000000
H     2.301000000     0.909000000     5.844000000
H     1.353000000    -0.536000000     5.932000000
C     0.454000000     1.092000000     4.895000000
C     0.709000000     2.430000000     4.608000000
H     1.699000000     2.878000000     4.589000000
C    -0.801000000     0.439000000     4.778000000
C    -1.818000000     1.193000000     4.213000000
H    -2.771000000     0.725000000     3.979000000
C    -1.621000000     2.522000000     3.908000000
O    -2.649000000     3.121000000     3.255000000
C    -2.563000000     3.127000000     1.775000000
C    -3.848000000     2.870000000     1.042000000
C    -4.175000000     3.323000000    -0.230000000
H    -3.345000000     3.751000000    -0.786000000
C    -4.906000000     2.270000000     1.766000000
H    -4.737000000     1.916000000     2.780000000
O    -1.990000000     4.385000000     1.309000000
H    -1.908000000     2.329000000     1.396000000
C    -0.347000000     3.142000000     4.035000000
C    -0.103000000     4.516000000     3.404000000
H     0.642000000     5.085000000     3.964000000
H    -1.000000000     5.135000000     3.469000000
C     0.334000000     4.448000000     1.967000000
C     1.682000000     4.507000000     1.559000000
H     2.574000000     4.628000000     2.169000000
C    -0.693000000     4.353000000     0.984000000
C    -0.362000000     4.249000000    -0.344000000
H    -1.145000000     4.316000000    -1.095000000
C     0.950000000     4.148000000    -0.729000000
O     1.187000000     3.966000000    -2.106000000
C     1.664000000     2.673000000    -2.511000000
C     1.070000000     2.232000000    -3.883000000
C    -0.317000000     2.431000000    -4.029000000
H    -0.739000000     3.140000000    -3.321000000
C     1.702000000     1.325000000    -4.750000000
H     2.750000000     1.055000000    -4.649000000
O     3.131000000     2.749000000    -2.531000000
H     1.375000000     1.968000000    -1.717000000
C     1.955000000     4.351000000     0.247000000
C     3.452000000     4.290000000    -0.198000000
H     4.066000000     4.869000000     0.495000000
H     3.525000000     4.722000000    -1.199000000
C     3.943000000     2.856000000    -0.273000000
C     3.776000000     2.158000000    -1.482000000
C     4.318000000     0.907000000    -1.581000000
H     4.337000000     0.346000000    -2.512000000
C     4.901000000     0.273000000    -0.510000000
O     5.064000000    -1.084000000    -0.567000000
C     3.989000000    -1.902000000    -0.226000000
H     3.078000000    -1.288000000    -0.153000000
C     3.763000000    -3.028000000    -1.272000000
C     2.699000000    -3.926000000    -0.926000000
H     2.066000000    -3.830000000    -0.048000000
C     4.219000000    -2.989000000    -2.590000000
H     5.016000000    -2.358000000    -2.974000000
C     3.706000000    -3.860000000    -3.513000000
O     4.151000000    -3.824000000    -4.847000000
C     2.831000000    -4.854000000    -3.146000000
H     2.369000000    -5.469000000    -3.914000000
C     2.282000000    -4.865000000    -1.869000000
O     1.309000000    -5.719000000    -1.455000000
C     1.137000000    -6.083000000    -0.113000000
C    -0.114000000    -5.910000000     0.459000000
H    -0.907000000    -5.297000000     0.038000000
C     2.090000000    -6.776000000     0.661000000
H     3.047000000    -7.035000000     0.217000000
C     1.805000000    -7.273000000     1.970000000
H     2.547000000    -7.760000000     2.598000000
C     0.490000000    -7.136000000     2.511000000
H     0.166000000    -7.352000000     3.525000000
C    -0.401000000    -6.511000000     1.723000000
O    -1.681000000    -6.233000000     2.234000000
C    -2.030000000    -4.962000000     2.496000000
C    -3.312000000    -4.586000000     2.182000000
H    -3.915000000    -5.317000000     1.648000000
C    -3.728000000    -3.303000000     2.424000000
O    -5.033000000    -2.946000000     2.197000000
C    -5.726000000    -1.952000000     2.785000000
C    -6.102000000    -0.821000000     2.067000000
H    -5.740000000    -0.801000000     1.042000000
C    -6.304000000    -2.201000000     4.042000000
H    -6.039000000    -3.129000000     4.543000000
C    -7.140000000    -1.203000000     4.646000000
H    -7.569000000    -1.362000000     5.632000000
C    -7.544000000    -0.131000000     3.849000000
H    -8.186000000     0.659000000     4.229000000
C    -6.920000000     0.121000000     2.634000000
O    -7.122000000     1.337000000     1.986000000
C    -6.151000000     1.922000000     1.228000000
C    -6.398000000     2.280000000    -0.061000000
H    -7.311000000     1.994000000    -0.577000000
C    -5.413000000     2.993000000    -0.781000000
O    -5.705000000     3.547000000    -1.977000000
C    -4.751000000     3.726000000    -2.985000000
C    -3.837000000     2.758000000    -3.430000000
H    -3.834000000     1.758000000    -3.004000000
C    -4.904000000     4.911000000    -3.758000000
H    -5.594000000     5.683000000    -3.425000000
C    -4.109000000     5.060000000    -4.919000000
H    -4.233000000     5.930000000    -5.559000000
C    -3.242000000     4.061000000    -5.355000000
H    -2.747000000     4.170000000    -6.316000000
C    -3.051000000     2.971000000    -4.537000000
O    -2.348000000     1.981000000    -5.138000000
C    -0.988000000     1.927000000    -5.112000000
C    -0.363000000     1.031000000    -5.970000000
H    -0.908000000     0.513000000    -6.754000000
C     0.927000000     0.615000000    -5.687000000
O     1.446000000    -0.271000000    -6.552000000
C     2.689000000    -0.862000000    -6.407000000
C     3.809000000    -0.314000000    -6.989000000
H     3.712000000     0.719000000    -7.315000000
C     4.955000000    -1.102000000    -7.113000000
H     5.811000000    -0.763000000    -7.692000000
C     5.046000000    -2.251000000    -6.406000000
H     6.003000000    -2.767000000    -6.416000000
C     3.967000000    -2.745000000    -5.719000000
C     2.752000000    -2.040000000    -5.777000000
H     1.907000000    -2.493000000    -5.266000000
C    -1.239000000    -2.113000000    -0.330000000
H    -1.432000000    -3.182000000    -0.364000000
C    -0.171000000    -1.645000000     0.476000000
H     0.486000000    -2.308000000     1.032000000
C     0.160000000    -0.318000000     0.554000000
H     1.012000000     0.156000000     1.136000000
C    -0.496000000     0.562000000    -0.320000000
H    -0.141000000     1.582000000    -0.449000000
C    -1.604000000     0.108000000    -1.113000000
H    -2.122000000     0.893000000    -1.658000000
C    -2.004000000    -1.223000000    -1.095000000
C    -3.242000000    -1.774000000    -1.782000000
O    -3.903000000    -1.061000000    -2.535000000
O    -3.482000000    -2.941000000    -1.575000000
O    -7.571000000    -4.509000000     1.152000000
H    -7.035000000    -4.300000000     1.917000000
H    -7.009000000    -4.309000000     0.404000000
O    -4.092000000    -5.655000000    -0.778000000
H    -4.621000000    -5.944000000    -1.522000000
H    -3.988000000    -4.713000000    -0.910000000
O    -8.929000000    -1.093000000     0.231000000
H    -8.421000000    -0.939000000    -0.566000000
H    -8.424000000    -1.747000000     0.714000000
O    -6.186000000    -5.271000000    -6.340000000
H    -7.034000000    -5.716000000    -6.344000000
H    -6.312000000    -4.521000000    -5.759000000
O    -7.896000000     1.065000000    -2.857000000
H    -8.075000000     1.875000000    -3.335000000
H    -8.458000000     0.412000000    -3.273000000
O    -0.760000000    -4.879000000    -7.063000000
H    -0.840000000    -4.378000000    -6.252000000
H    -1.583000000    -4.718000000    -7.526000000
O    -0.777000000    -3.163000000    -5.090000000
H    -0.852000000    -3.711000000    -4.309000000
H    -1.338000000    -2.409000000    -4.909000000
O    -6.285000000    -3.372000000    -0.887000000
H    -6.494000000    -2.458000000    -1.079000000
H    -5.384000000    -3.481000000    -1.191000000
O    -3.238000000     0.687000000    -7.608000000
H    -2.825000000     1.183000000    -8.315000000
H    -2.992000000     1.155000000    -6.811000000
O     1.530000000    -1.150000000    -2.216000000
H     1.500000000    -2.102000000    -2.117000000
H     0.687000000    -0.848000000    -1.877000000
O    -7.135000000    -3.824000000    -3.794000000
H    -6.629000000    -3.017000000    -3.697000000
H    -6.906000000    -4.345000000    -3.025000000
O    -5.784000000     0.901000000    -7.049000000
H    -5.795000000     0.221000000    -6.375000000
H    -4.860000000     0.996000000    -7.279000000
O    -0.559000000    -6.893000000    -3.480000000
H    -0.912000000    -6.101000000    -3.073000000
H    -0.343000000    -7.465000000    -2.744000000
O    -5.553000000    -0.696000000    -4.953000000
H    -5.335000000    -1.626000000    -5.012000000
H    -5.327000000    -0.454000000    -4.054000000
O    -5.303000000    -6.269000000    -3.260000000
H    -5.507000000    -6.068000000    -4.173000000
H    -4.774000000    -7.065000000    -3.302000000
O    -4.223000000    -3.080000000    -4.763000000
H    -3.921000000    -2.881000000    -3.877000000
H    -3.438000000    -3.005000000    -5.306000000
O    -6.592000000    -0.595000000    -1.379000000
H    -6.950000000     0.147000000    -1.865000000
H    -5.748000000    -0.770000000    -1.795000000
O    -2.429000000    -5.099000000    -3.229000000
H    -2.935000000    -4.526000000    -2.653000000
H    -3.073000000    -5.715000000    -3.579000000
O    -2.341000000    -1.002000000    -4.711000000
H    -2.977000000    -0.942000000    -3.998000000
H    -2.844000000    -0.791000000    -5.498000000
