215
-1456.05306
C    -2.563000000    -2.915000000     3.477000000
H    -3.043000000    -2.024000000     3.875000000
C    -1.182000000    -2.967000000     3.383000000
C    -0.578000000    -4.096000000     2.836000000
H     0.499000000    -4.238000000     2.783000000
C    -0.352000000    -1.743000000     3.893000000
O    -1.085000000    -0.867000000     4.834000000
H    -0.118000000    -1.162000000     2.989000000
O     0.910000000    -2.197000000     4.439000000
C     2.002000000    -1.406000000     4.023000000
C     2.952000000    -2.048000000     3.259000000
H     2.735000000    -3.015000000     2.812000000
C     4.018000000    -1.332000000     2.640000000
O     4.521000000    -1.958000000     1.495000000
C     4.092000000     0.054000000     2.859000000
C     5.025000000     0.930000000     2.084000000
H     5.329000000     1.697000000     2.800000000
C     4.394000000     1.532000000     0.836000000
C     3.957000000     2.876000000     0.817000000
H     3.838000000     3.442000000     1.737000000
H     5.861000000     0.273000000     1.835000000
C     3.240000000     0.601000000     3.862000000
H     3.464000000     1.618000000     4.172000000
C     2.177000000    -0.106000000     4.403000000
C     1.248000000     0.577000000     5.391000000
H     1.775000000     1.387000000     5.900000000
H     1.014000000    -0.064000000     6.244000000
C     0.017000000     1.239000000     4.687000000
C    -0.013000000     2.563000000     4.181000000
H     0.847000000     3.225000000     4.228000000
C    -1.148000000     0.493000000     4.640000000
C    -2.279000000     0.993000000     3.972000000
H    -3.167000000     0.376000000     3.861000000
C    -2.220000000     2.219000000     3.392000000
O    -3.251000000     2.610000000     2.554000000
C    -3.085000000     2.682000000     1.067000000
C    -4.282000000     2.190000000     0.357000000
C    -4.645000000     2.692000000    -0.841000000
H    -4.105000000     3.575000000    -1.172000000
C    -5.017000000     1.105000000     0.804000000
H    -4.753000000     0.589000000     1.724000000
O    -2.761000000     4.010000000     0.677000000
H    -2.235000000     2.005000000     0.897000000
C    -1.123000000     3.058000000     3.527000000
C    -0.989000000     4.499000000     2.932000000
H    -0.309000000     5.050000000     3.584000000
H    -1.973000000     4.957000000     3.041000000
C    -0.565000000     4.509000000     1.505000000
C     0.743000000     4.814000000     1.205000000
H     1.477000000     5.038000000     1.974000000
C    -1.473000000     4.344000000     0.475000000
C    -0.972000000     4.315000000    -0.858000000
H    -1.558000000     4.088000000    -1.745000000
C     0.386000000     4.411000000    -1.122000000
O     0.818000000     4.245000000    -2.459000000
C     1.466000000     2.995000000    -2.671000000
C     0.897000000     2.371000000    -3.979000000
C    -0.449000000     2.381000000    -4.290000000
H    -1.151000000     2.758000000    -3.552000000
C     1.863000000     1.905000000    -4.939000000
H     2.945000000     1.927000000    -4.840000000
O     2.874000000     3.153000000    -2.738000000
H     1.068000000     2.336000000    -1.886000000
C     1.269000000     4.661000000    -0.065000000
C     2.766000000     4.828000000    -0.346000000
H     3.311000000     5.426000000     0.387000000
H     2.799000000     5.423000000    -1.261000000
C     3.440000000     3.443000000    -0.417000000
C     3.492000000     2.706000000    -1.612000000
C     4.036000000     1.404000000    -1.593000000
H     4.132000000     0.792000000    -2.486000000
C     4.405000000     0.846000000    -0.383000000
O     4.753000000    -0.504000000    -0.472000000
C     3.930000000    -1.517000000     0.207000000
H     2.936000000    -1.051000000     0.275000000
C     3.796000000    -2.784000000    -0.650000000
C     3.748000000    -4.080000000    -0.135000000
H     3.786000000    -4.175000000     0.948000000
C     3.631000000    -2.584000000    -2.041000000
H     3.600000000    -1.590000000    -2.480000000
C     3.518000000    -3.627000000    -2.903000000
O     3.337000000    -3.320000000    -4.247000000
C     3.440000000    -4.962000000    -2.426000000
H     3.518000000    -5.837000000    -3.066000000
C     3.619000000    -5.185000000    -1.026000000
O     3.461000000    -6.463000000    -0.542000000
C     2.676000000    -6.650000000     0.536000000
C     1.325000000    -6.259000000     0.538000000
H     0.761000000    -5.899000000    -0.318000000
C     3.171000000    -7.262000000     1.687000000
H     4.207000000    -7.591000000     1.714000000
C     2.341000000    -7.499000000     2.778000000
H     2.668000000    -7.932000000     3.720000000
C     1.034000000    -7.110000000     2.792000000
H     0.316000000    -7.348000000     3.573000000
C     0.578000000    -6.397000000     1.663000000
O    -0.845000000    -6.152000000     1.644000000
C    -1.381000000    -5.071000000     2.314000000
C    -2.749000000    -5.014000000     2.399000000
H    -3.306000000    -5.736000000     1.806000000
C    -3.386000000    -3.926000000     2.982000000
O    -4.700000000    -3.865000000     3.022000000
C    -5.511000000    -2.741000000     3.025000000
C    -5.791000000    -2.027000000     1.862000000
H    -5.428000000    -2.383000000     0.901000000
C    -5.955000000    -2.322000000     4.256000000
H    -5.575000000    -2.781000000     5.164000000
C    -6.795000000    -1.147000000     4.242000000
H    -7.169000000    -0.719000000     5.168000000
C    -7.149000000    -0.465000000     3.049000000
H    -7.838000000     0.376000000     3.029000000
C    -6.650000000    -0.971000000     1.855000000
O    -6.895000000    -0.336000000     0.613000000
C    -6.158000000     0.677000000     0.172000000
C    -6.476000000     1.207000000    -1.082000000
H    -7.247000000     0.748000000    -1.695000000
C    -5.740000000     2.267000000    -1.581000000
O    -5.987000000     2.672000000    -2.874000000
C    -4.989000000     3.152000000    -3.677000000
C    -4.001000000     2.307000000    -4.171000000
H    -4.013000000     1.232000000    -4.008000000
C    -5.035000000     4.509000000    -4.023000000
H    -5.846000000     5.086000000    -3.584000000
C    -4.078000000     5.074000000    -4.925000000
H    -4.088000000     6.133000000    -5.172000000
C    -3.139000000     4.184000000    -5.445000000
H    -2.568000000     4.547000000    -6.295000000
C    -3.160000000     2.832000000    -5.120000000
O    -2.271000000     2.086000000    -5.873000000
C    -0.963000000     1.903000000    -5.466000000
C    -0.050000000     1.235000000    -6.334000000
H    -0.368000000     0.777000000    -7.267000000
C     1.351000000     1.232000000    -6.050000000
O     2.248000000     0.553000000    -6.873000000
C     3.222000000    -0.209000000    -6.211000000
C     4.557000000     0.135000000    -6.273000000
H     4.742000000     1.114000000    -6.709000000
C     5.505000000    -0.639000000    -5.614000000
H     6.555000000    -0.370000000    -5.693000000
C     5.075000000    -1.795000000    -4.883000000
H     5.840000000    -2.430000000    -4.445000000
C     3.759000000    -2.155000000    -4.894000000
C     2.823000000    -1.476000000    -5.669000000
H     1.784000000    -1.771000000    -5.787000000
C    -0.916000000    -1.908000000    -0.062000000
H    -1.054000000    -2.974000000     0.097000000
C     0.299000000    -1.462000000     0.448000000
H     0.960000000    -2.099000000     1.031000000
C     0.568000000    -0.078000000     0.467000000
H     1.451000000     0.256000000     1.058000000
C    -0.348000000     0.778000000    -0.240000000
H    -0.122000000     1.841000000    -0.283000000
C    -1.536000000     0.308000000    -0.872000000
H    -2.261000000     0.982000000    -1.321000000
C    -1.847000000    -1.043000000    -0.673000000
C    -3.125000000    -1.663000000    -1.173000000
O    -3.855000000    -0.967000000    -1.862000000
O    -3.526000000    -2.760000000    -0.839000000
O    -8.061000000    -5.456000000     1.362000000
H    -7.173000000    -5.786000000     1.225000000
H    -7.938000000    -4.596000000     1.764000000
O    -5.446000000    -6.286000000     0.606000000
H    -5.059000000    -7.115000000     0.323000000
H    -4.873000000    -5.615000000     0.235000000
O    -6.016000000    -7.249000000    -2.451000000
H    -5.375000000    -6.575000000    -2.676000000
H    -6.019000000    -7.838000000    -3.206000000
O    -8.966000000    -0.955000000    -1.441000000
H    -8.931000000    -1.192000000    -0.514000000
H    -9.568000000    -1.590000000    -1.828000000
O    -4.651000000    -0.703000000    -5.963000000
H    -4.238000000    -0.461000000    -6.791000000
H    -3.926000000    -0.758000000    -5.340000000
O    -7.261000000    -3.799000000    -3.560000000
H    -8.123000000    -3.486000000    -3.283000000
H    -6.690000000    -3.036000000    -3.475000000
O    -8.365000000     0.218000000    -3.906000000
H    -8.782000000    -0.535000000    -4.324000000
H    -8.647000000     0.171000000    -2.992000000
O     0.477000000    -4.289000000    -3.706000000
H    -0.180000000    -3.808000000    -4.209000000
H     1.045000000    -3.610000000    -3.342000000
O    -4.645000000    -4.006000000    -7.444000000
H    -5.484000000    -3.658000000    -7.142000000
H    -4.109000000    -4.061000000    -6.653000000
O    -4.476000000    -4.765000000    -1.981000000
H    -5.392000000    -4.577000000    -2.185000000
H    -4.123000000    -3.929000000    -1.674000000
O    -7.017000000    -1.791000000    -6.042000000
H    -7.091000000    -2.420000000    -5.323000000
H    -6.125000000    -1.452000000    -5.972000000
O    -0.013000000    -1.381000000    -3.253000000
H    -0.205000000    -1.335000000    -2.316000000
H     0.742000000    -0.804000000    -3.371000000
O    -3.677000000    -7.999000000     0.128000000
H    -3.643000000    -8.788000000    -0.413000000
H    -3.084000000    -7.385000000    -0.305000000
O    -7.257000000    -5.527000000    -5.535000000
H    -7.287000000    -5.079000000    -4.689000000
H    -7.032000000    -6.431000000    -5.319000000
O    -1.590000000    -2.904000000    -6.864000000
H    -1.798000000    -3.827000000    -6.720000000
H    -2.114000000    -2.436000000    -6.214000000
O    -3.396000000    -3.715000000    -5.016000000
H    -3.309000000    -2.959000000    -4.435000000
H    -3.625000000    -4.439000000    -4.434000000
O    -6.122000000    -1.333000000    -3.191000000
H    -6.479000000    -0.562000000    -3.633000000
H    -5.380000000    -0.998000000    -2.687000000
O    -2.161000000    -6.281000000    -1.161000000
H    -1.372000000    -5.739000000    -1.170000000
H    -2.846000000    -5.713000000    -1.516000000
O    -2.500000000    -1.361000000    -4.185000000
H    -2.995000000    -1.007000000    -3.446000000
H    -1.585000000    -1.303000000    -3.910000000
