215
-1450.79114
C    -3.361000000    -2.353000000     3.134000000
H    -3.873000000    -1.466000000     3.499000000
C    -1.994000000    -2.481000000     3.354000000
C    -1.306000000    -3.607000000     2.973000000
H    -0.227000000    -3.653000000     3.102000000
C    -1.237000000    -1.173000000     3.762000000
O    -2.111000000    -0.178000000     4.456000000
H    -0.920000000    -0.674000000     2.834000000
O    -0.106000000    -1.425000000     4.548000000
C     1.088000000    -0.820000000     4.251000000
C     2.038000000    -1.514000000     3.590000000
H     1.761000000    -2.529000000     3.317000000
C     3.204000000    -0.963000000     3.220000000
O     4.056000000    -1.747000000     2.515000000
C     3.467000000     0.340000000     3.473000000
C     4.702000000     0.979000000     2.878000000
H     4.961000000     1.896000000     3.409000000
C     4.383000000     1.399000000     1.435000000
C     3.848000000     2.663000000     1.209000000
H     3.761000000     3.310000000     2.078000000
H     5.609000000     0.371000000     2.912000000
C     2.493000000     1.064000000     4.178000000
H     2.791000000     2.051000000     4.524000000
C     1.297000000     0.522000000     4.544000000
C     0.241000000     1.337000000     5.213000000
H     0.697000000     2.184000000     5.731000000
H    -0.223000000     0.775000000     6.026000000
C    -0.817000000     1.891000000     4.319000000
C    -0.658000000     3.176000000     3.789000000
H     0.212000000     3.781000000     4.032000000
C    -2.010000000     1.158000000     4.013000000
C    -2.939000000     1.731000000     3.138000000
H    -3.824000000     1.134000000     2.931000000
C    -2.765000000     2.954000000     2.549000000
O    -3.641000000     3.338000000     1.662000000
C    -3.284000000     3.107000000     0.276000000
C    -4.399000000     2.571000000    -0.581000000
C    -4.323000000     2.875000000    -1.948000000
H    -3.600000000     3.525000000    -2.435000000
C    -5.270000000     1.609000000    -0.085000000
H    -5.331000000     1.246000000     0.938000000
O    -2.729000000     4.311000000    -0.175000000
H    -2.477000000     2.361000000     0.247000000
C    -1.641000000     3.694000000     2.921000000
C    -1.404000000     4.993000000     2.322000000
H    -0.793000000     5.581000000     3.010000000
H    -2.354000000     5.484000000     2.102000000
C    -0.624000000     4.790000000     1.089000000
C     0.755000000     4.788000000     1.020000000
H     1.352000000     5.002000000     1.903000000
C    -1.385000000     4.603000000    -0.090000000
C    -0.762000000     4.433000000    -1.333000000
H    -1.342000000     4.347000000    -2.248000000
C     0.599000000     4.303000000    -1.379000000
O     1.182000000     3.852000000    -2.575000000
C     1.786000000     2.549000000    -2.632000000
C     1.537000000     1.822000000    -3.870000000
C     0.274000000     1.843000000    -4.467000000
H    -0.414000000     2.579000000    -4.059000000
C     2.379000000     0.751000000    -4.291000000
H     3.288000000     0.501000000    -3.750000000
O     3.161000000     2.561000000    -2.345000000
H     1.359000000     1.899000000    -1.854000000
C     1.362000000     4.468000000    -0.225000000
C     2.874000000     4.390000000    -0.267000000
H     3.262000000     5.031000000     0.528000000
H     3.240000000     4.875000000    -1.175000000
C     3.470000000     3.032000000    -0.049000000
C     3.590000000     2.081000000    -1.116000000
C     4.293000000     0.842000000    -0.931000000
H     4.326000000     0.125000000    -1.747000000
C     4.681000000     0.513000000     0.343000000
O     5.130000000    -0.748000000     0.644000000
C     4.030000000    -1.645000000     1.027000000
H     3.043000000    -1.226000000     0.782000000
C     4.205000000    -3.006000000     0.309000000
C     3.903000000    -4.212000000     0.879000000
H     3.639000000    -4.269000000     1.932000000
C     4.688000000    -3.024000000    -1.054000000
H     4.853000000    -2.048000000    -1.502000000
C     4.631000000    -4.165000000    -1.823000000
O     5.207000000    -4.284000000    -3.069000000
C     4.232000000    -5.403000000    -1.215000000
H     4.100000000    -6.364000000    -1.706000000
C     3.718000000    -5.318000000     0.082000000
O     3.063000000    -6.463000000     0.535000000
C     2.181000000    -6.494000000     1.597000000
C     0.868000000    -6.173000000     1.248000000
H     0.631000000    -5.959000000     0.209000000
C     2.537000000    -6.753000000     2.930000000
H     3.581000000    -6.988000000     3.122000000
C     1.621000000    -6.805000000     3.933000000
H     1.975000000    -6.984000000     4.945000000
C     0.256000000    -6.507000000     3.585000000
H    -0.534000000    -6.484000000     4.331000000
C    -0.128000000    -6.235000000     2.267000000
O    -1.414000000    -5.861000000     1.957000000
C    -2.024000000    -4.635000000     2.334000000
C    -3.403000000    -4.498000000     2.191000000
H    -3.981000000    -5.382000000     1.937000000
C    -4.083000000    -3.379000000     2.562000000
O    -5.444000000    -3.382000000     2.471000000
C    -6.064000000    -2.193000000     2.202000000
C    -6.220000000    -1.638000000     0.910000000
H    -5.757000000    -2.060000000     0.022000000
C    -6.798000000    -1.690000000     3.255000000
H    -6.647000000    -2.097000000     4.251000000
C    -7.617000000    -0.591000000     3.097000000
H    -8.182000000    -0.253000000     3.961000000
C    -7.728000000     0.007000000     1.843000000
H    -8.309000000     0.926000000     1.823000000
C    -7.065000000    -0.511000000     0.707000000
O    -7.082000000     0.017000000    -0.565000000
C    -6.189000000     1.020000000    -0.970000000
C    -6.212000000     1.399000000    -2.312000000
H    -7.020000000     0.953000000    -2.886000000
C    -5.281000000     2.339000000    -2.832000000
O    -5.307000000     2.673000000    -4.127000000
C    -4.128000000     3.027000000    -4.831000000
C    -3.334000000     2.009000000    -5.244000000
H    -3.761000000     1.020000000    -5.099000000
C    -3.770000000     4.338000000    -5.083000000
H    -4.358000000     5.156000000    -4.674000000
C    -2.631000000     4.527000000    -5.880000000
H    -2.327000000     5.547000000    -6.098000000
C    -1.810000000     3.427000000    -6.228000000
H    -0.985000000     3.622000000    -6.908000000
C    -2.152000000     2.176000000    -5.899000000
O    -1.289000000     1.156000000    -6.119000000
C     0.006000000     1.139000000    -5.640000000
C     0.911000000     0.121000000    -6.039000000
H     0.567000000    -0.621000000    -6.755000000
C     2.143000000    -0.027000000    -5.402000000
O     2.931000000    -1.135000000    -5.779000000
C     4.100000000    -1.513000000    -5.172000000
C     5.343000000    -0.979000000    -5.486000000
H     5.382000000    -0.045000000    -6.042000000
C     6.482000000    -1.520000000    -4.997000000
H     7.394000000    -1.007000000    -5.291000000
C     6.514000000    -2.650000000    -4.241000000
H     7.425000000    -3.057000000    -3.809000000
C     5.256000000    -3.206000000    -3.907000000
C     4.078000000    -2.726000000    -4.532000000
H     3.137000000    -3.250000000    -4.381000000
C    -1.080000000    -2.226000000    -0.019000000
H    -0.927000000    -3.293000000     0.122000000
C    -0.040000000    -1.379000000     0.328000000
H     0.755000000    -1.621000000     1.030000000
C    -0.044000000    -0.122000000    -0.170000000
H     0.825000000     0.526000000     0.028000000
C    -1.003000000     0.361000000    -1.082000000
H    -0.975000000     1.431000000    -1.274000000
C    -2.121000000    -0.432000000    -1.286000000
H    -3.097000000    -0.139000000    -1.665000000
C    -2.125000000    -1.737000000    -0.835000000
C    -3.205000000    -2.652000000    -1.336000000
O    -4.185000000    -2.230000000    -1.864000000
O    -3.070000000    -3.851000000    -1.396000000
O    -0.907000000    -5.244000000    -1.527000000
H    -1.331000000    -6.100000000    -1.462000000
H    -1.598000000    -4.617000000    -1.312000000
O    -1.476000000    -4.561000000    -4.859000000
H    -0.898000000    -4.661000000    -4.103000000
H    -1.454000000    -3.625000000    -5.056000000
O    -5.576000000    -4.965000000    -0.888000000
H    -4.780000000    -4.450000000    -1.015000000
H    -5.925000000    -5.089000000    -1.771000000
O    -7.638000000    -4.663000000     1.066000000
H    -7.357000000    -4.949000000     0.196000000
H    -6.824000000    -4.559000000     1.558000000
O    -6.357000000    -1.157000000    -5.180000000
H    -7.195000000    -0.796000000    -5.468000000
H    -6.253000000    -1.960000000    -5.691000000
O    -1.738000000    -1.689000000    -6.013000000
H    -2.489000000    -1.802000000    -5.431000000
H    -1.930000000    -0.887000000    -6.499000000
O     1.528000000    -5.199000000    -5.691000000
H     1.370000000    -5.064000000    -4.757000000
H     2.347000000    -5.694000000    -5.726000000
O    -0.303000000    -1.561000000    -3.443000000
H    -0.675000000    -0.950000000    -2.807000000
H    -0.885000000    -1.501000000    -4.201000000
O    -7.637000000    -4.980000000    -2.680000000
H    -8.393000000    -4.454000000    -2.420000000
H    -7.034000000    -4.352000000    -3.079000000
O    -6.026000000    -7.757000000    -0.655000000
H    -5.283000000    -8.245000000    -1.010000000
H    -5.826000000    -6.841000000    -0.849000000
O    -3.600000000    -8.387000000    -2.076000000
H    -2.673000000    -8.523000000    -1.879000000
H    -3.641000000    -7.498000000    -2.428000000
O    -9.374000000    -1.245000000    -2.605000000
H    -8.516000000    -1.460000000    -2.237000000
H    -9.886000000    -2.047000000    -2.502000000
O    -3.827000000    -1.451000000    -4.349000000
H    -4.693000000    -1.295000000    -4.725000000
H    -4.002000000    -1.706000000    -3.443000000
O    -3.606000000    -7.222000000    -5.419000000
H    -3.682000000    -6.720000000    -6.230000000
H    -3.482000000    -6.561000000    -4.738000000
O    -2.514000000    -8.609000000     1.506000000
H    -2.094000000    -8.583000000     0.646000000
H    -2.380000000    -7.732000000     1.865000000
O    -6.177000000    -3.669000000    -6.028000000
H    -6.362000000    -4.554000000    -5.714000000
H    -5.404000000    -3.768000000    -6.582000000
O    -6.466000000    -2.693000000    -2.928000000
H    -6.420000000    -2.142000000    -3.709000000
H    -5.591000000    -2.639000000    -2.544000000
O    -3.331000000    -5.803000000    -3.213000000
H    -2.818000000    -5.424000000    -3.927000000
H    -3.363000000    -5.113000000    -2.550000000
O     0.761000000    -3.960000000    -3.307000000
H     0.637000000    -3.012000000    -3.261000000
H     0.354000000    -4.294000000    -2.508000000
