215
-1435.76050
C    -2.980000000    -1.996000000     2.719000000
H    -3.289000000    -0.954000000     2.685000000
C    -1.708000000    -2.236000000     3.202000000
C    -1.288000000    -3.603000000     3.170000000
H    -0.313000000    -3.846000000     3.585000000
C    -0.825000000    -1.138000000     3.663000000
O    -1.509000000    -0.176000000     4.506000000
H    -0.583000000    -0.612000000     2.728000000
O     0.245000000    -1.636000000     4.466000000
C     1.442000000    -1.134000000     4.067000000
C     2.233000000    -1.807000000     3.194000000
H     1.821000000    -2.751000000     2.848000000
C     3.423000000    -1.353000000     2.731000000
O     4.171000000    -1.980000000     1.862000000
C     3.774000000    -0.034000000     3.123000000
C     4.957000000     0.672000000     2.553000000
H     5.377000000     1.536000000     3.071000000
C     4.706000000     1.264000000     1.189000000
C     4.254000000     2.592000000     1.103000000
H     4.178000000     3.203000000     1.999000000
H     5.787000000    -0.034000000     2.497000000
C     2.962000000     0.627000000     4.000000000
H     3.294000000     1.632000000     4.250000000
C     1.853000000     0.126000000     4.484000000
C     0.915000000     0.999000000     5.386000000
H     1.568000000     1.678000000     5.939000000
H     0.455000000     0.401000000     6.175000000
C    -0.180000000     1.774000000     4.615000000
C     0.043000000     3.063000000     4.050000000
H     0.971000000     3.556000000     4.326000000
C    -1.376000000     1.151000000     4.289000000
C    -2.278000000     1.764000000     3.419000000
H    -3.131000000     1.169000000     3.101000000
C    -2.169000000     3.061000000     3.029000000
O    -3.107000000     3.529000000     2.116000000
C    -2.904000000     3.432000000     0.744000000
C    -4.161000000     3.094000000     0.013000000
C    -4.329000000     3.371000000    -1.332000000
H    -3.523000000     3.911000000    -1.821000000
C    -5.126000000     2.358000000     0.649000000
H    -4.976000000     2.095000000     1.693000000
O    -2.369000000     4.764000000     0.323000000
H    -2.187000000     2.620000000     0.553000000
C    -0.924000000     3.645000000     3.258000000
C    -0.695000000     4.965000000     2.682000000
H     0.049000000     5.516000000     3.260000000
H    -1.534000000     5.656000000     2.781000000
C    -0.159000000     4.913000000     1.233000000
C     1.248000000     4.963000000     0.995000000
H     1.751000000     5.157000000     1.939000000
C    -1.004000000     4.821000000     0.103000000
C    -0.450000000     4.485000000    -1.116000000
H    -1.133000000     4.235000000    -1.924000000
C     0.910000000     4.342000000    -1.322000000
O     1.257000000     3.927000000    -2.582000000
C     1.862000000     2.587000000    -2.676000000
C     1.414000000     1.760000000    -3.894000000
C     0.016000000     1.747000000    -4.281000000
H    -0.595000000     2.483000000    -3.764000000
C     2.340000000     0.843000000    -4.469000000
H     3.352000000     0.915000000    -4.077000000
O     3.308000000     2.657000000    -2.476000000
H     1.453000000     1.969000000    -1.863000000
C     1.814000000     4.612000000    -0.229000000
C     3.341000000     4.552000000    -0.239000000
H     3.848000000     5.224000000     0.457000000
H     3.645000000     5.015000000    -1.181000000
C     3.858000000     3.146000000    -0.107000000
C     3.805000000     2.333000000    -1.219000000
C     4.368000000     1.049000000    -1.226000000
H     4.410000000     0.493000000    -2.159000000
C     4.786000000     0.506000000    -0.008000000
O     4.914000000    -0.905000000    -0.113000000
C     3.874000000    -1.773000000     0.435000000
H     2.908000000    -1.247000000     0.427000000
C     3.818000000    -3.105000000    -0.313000000
C     2.909000000    -4.065000000     0.128000000
H     2.371000000    -3.906000000     1.058000000
C     4.281000000    -3.245000000    -1.610000000
H     4.925000000    -2.515000000    -2.094000000
C     4.015000000    -4.403000000    -2.339000000
O     4.393000000    -4.588000000    -3.627000000
C     3.094000000    -5.324000000    -1.878000000
H     2.612000000    -6.070000000    -2.506000000
C     2.568000000    -5.161000000    -0.603000000
O     1.436000000    -5.905000000    -0.323000000
C     1.031000000    -6.285000000     0.951000000
C    -0.199000000    -5.875000000     1.400000000
H    -0.851000000    -5.276000000     0.769000000
C     1.842000000    -7.113000000     1.670000000
H     2.826000000    -7.318000000     1.256000000
C     1.398000000    -7.586000000     2.897000000
H     2.053000000    -8.287000000     3.408000000
C     0.097000000    -7.425000000     3.271000000
H    -0.271000000    -7.852000000     4.200000000
C    -0.692000000    -6.454000000     2.556000000
O    -1.852000000    -5.942000000     3.096000000
C    -2.197000000    -4.641000000     2.864000000
C    -3.454000000    -4.326000000     2.433000000
H    -4.069000000    -5.113000000     2.003000000
C    -3.855000000    -3.024000000     2.492000000
O    -5.131000000    -2.738000000     1.968000000
C    -5.828000000    -1.659000000     2.281000000
C    -6.184000000    -0.732000000     1.313000000
H    -5.658000000    -0.715000000     0.362000000
C    -6.508000000    -1.584000000     3.516000000
H    -6.404000000    -2.405000000     4.220000000
C    -7.335000000    -0.525000000     3.846000000
H    -7.883000000    -0.582000000     4.783000000
C    -7.692000000     0.333000000     2.836000000
H    -8.423000000     1.109000000     3.048000000
C    -7.086000000     0.299000000     1.598000000
O    -7.298000000     1.297000000     0.642000000
C    -6.254000000     1.873000000    -0.040000000
C    -6.343000000     2.160000000    -1.451000000
H    -7.221000000     1.833000000    -2.001000000
C    -5.367000000     2.880000000    -2.109000000
O    -5.466000000     2.903000000    -3.489000000
C    -4.421000000     2.925000000    -4.341000000
C    -3.563000000     1.839000000    -4.454000000
H    -3.730000000     0.920000000    -3.897000000
C    -4.153000000     4.062000000    -5.084000000
H    -4.794000000     4.912000000    -4.869000000
C    -3.013000000     4.107000000    -5.961000000
H    -2.818000000     5.030000000    -6.501000000
C    -2.180000000     2.991000000    -6.139000000
H    -1.416000000     2.942000000    -6.911000000
C    -2.499000000     1.877000000    -5.369000000
O    -1.768000000     0.756000000    -5.583000000
C    -0.369000000     0.809000000    -5.288000000
C     0.533000000    -0.051000000    -5.866000000
H     0.130000000    -0.792000000    -6.552000000
C     1.903000000    -0.015000000    -5.459000000
O     2.774000000    -0.829000000    -6.137000000
C     3.781000000    -1.560000000    -5.562000000
C     5.097000000    -1.223000000    -5.834000000
H     5.428000000    -0.309000000    -6.320000000
C     6.171000000    -1.964000000    -5.340000000
H     7.210000000    -1.709000000    -5.529000000
C     5.954000000    -3.126000000    -4.667000000
H     6.744000000    -3.795000000    -4.335000000
C     4.626000000    -3.521000000    -4.441000000
C     3.543000000    -2.814000000    -4.954000000
H     2.536000000    -3.100000000    -4.663000000
C    -1.818000000    -2.171000000    -0.379000000
H    -1.896000000    -3.235000000    -0.175000000
C    -0.660000000    -1.477000000    -0.106000000
H     0.221000000    -1.869000000     0.395000000
C    -0.592000000    -0.085000000    -0.413000000
H     0.323000000     0.545000000    -0.236000000
C    -1.651000000     0.513000000    -1.138000000
H    -1.575000000     1.573000000    -1.369000000
C    -2.804000000    -0.129000000    -1.381000000
H    -3.580000000     0.452000000    -1.874000000
C    -2.916000000    -1.517000000    -1.046000000
C    -4.137000000    -2.309000000    -1.512000000
O    -5.083000000    -1.707000000    -1.965000000
O    -4.107000000    -3.507000000    -1.647000000
O    -3.445000000    -5.944000000    -0.700000000
H    -4.313000000    -6.346000000    -0.652000000
H    -3.613000000    -5.043000000    -0.975000000
O    -6.463000000    -4.082000000    -0.155000000
H    -5.847000000    -4.144000000    -0.885000000
H    -5.973000000    -3.630000000     0.533000000
O    -8.969000000    -2.750000000     0.766000000
H    -8.076000000    -3.055000000     0.607000000
H    -8.993000000    -1.871000000     0.387000000
O    -7.397000000     0.201000000    -4.854000000
H    -6.881000000     0.965000000    -5.112000000
H    -8.270000000     0.372000000    -5.207000000
O    -1.919000000    -2.773000000    -7.143000000
H    -1.912000000    -3.093000000    -6.241000000
H    -2.610000000    -2.111000000    -7.158000000
O    -5.725000000    -3.673000000    -6.837000000
H    -6.241000000    -2.965000000    -7.222000000
H    -5.889000000    -3.604000000    -5.896000000
O    -1.698000000    -7.311000000    -2.154000000
H    -1.263000000    -7.898000000    -1.535000000
H    -2.377000000    -6.878000000    -1.637000000
O     0.009000000    -2.547000000    -4.121000000
H     0.316000000    -1.772000000    -3.651000000
H    -0.311000000    -3.132000000    -3.434000000
O    -9.390000000    -3.055000000    -3.714000000
H    -9.329000000    -3.907000000    -3.281000000
H    -8.654000000    -2.555000000    -3.361000000
O    -5.934000000    -7.303000000    -1.291000000
H    -5.839000000    -7.980000000    -1.961000000
H    -6.694000000    -6.792000000    -1.573000000
O    -9.954000000    -0.682000000    -1.309000000
H    -9.060000000    -0.931000000    -1.544000000
H   -10.268000000    -0.182000000    -2.063000000
O    -6.137000000    -2.304000000    -4.327000000
H    -6.640000000    -1.503000000    -4.477000000
H    -5.611000000    -2.114000000    -3.550000000
O    -8.063000000    -5.342000000    -1.910000000
H    -7.884000000    -4.747000000    -1.183000000
H    -9.013000000    -5.459000000    -1.896000000
O    -3.376000000    -8.052000000     1.619000000
H    -2.722000000    -8.683000000     1.920000000
H    -2.886000000    -7.446000000     1.064000000
O    -6.126000000    -5.278000000    -4.082000000
H    -6.040000000    -4.332000000    -3.966000000
H    -6.811000000    -5.534000000    -3.464000000
O    -7.496000000    -0.952000000    -2.004000000
H    -7.380000000    -0.395000000    -2.773000000
H    -6.610000000    -1.228000000    -1.771000000
O    -3.168000000    -4.179000000    -4.359000000
H    -3.470000000    -4.007000000    -3.467000000
H    -3.965000000    -4.393000000    -4.845000000
O    -0.597000000    -5.423000000    -4.065000000
H    -0.765000000    -6.055000000    -3.366000000
H    -1.460000000    -5.075000000    -4.286000000
O    -3.837000000    -0.744000000    -7.140000000
H    -3.468000000    -0.069000000    -6.570000000
H    -4.735000000    -0.454000000    -7.304000000
