215
-1453.13573
C    -3.472000000    -2.337000000     2.639000000
H    -3.892000000    -1.335000000     2.606000000
C    -2.168000000    -2.560000000     3.130000000
C    -1.583000000    -3.867000000     2.945000000
H    -0.544000000    -4.062000000     3.196000000
C    -1.472000000    -1.346000000     3.728000000
O    -2.275000000    -0.341000000     4.322000000
H    -1.028000000    -0.928000000     2.812000000
O    -0.443000000    -1.721000000     4.739000000
C     0.766000000    -1.150000000     4.509000000
C     1.662000000    -1.880000000     3.729000000
H     1.427000000    -2.884000000     3.385000000
C     2.864000000    -1.329000000     3.423000000
O     3.641000000    -2.048000000     2.583000000
C     3.182000000    -0.006000000     3.734000000
C     4.491000000     0.654000000     3.229000000
H     4.911000000     1.353000000     3.956000000
C     4.345000000     1.208000000     1.845000000
C     3.941000000     2.551000000     1.640000000
H     3.750000000     3.226000000     2.471000000
H     5.190000000    -0.181000000     3.149000000
C     2.270000000     0.785000000     4.374000000
H     2.429000000     1.800000000     4.728000000
C     1.067000000     0.209000000     4.885000000
C    -0.026000000     1.163000000     5.462000000
H     0.384000000     1.921000000     6.134000000
H    -0.738000000     0.579000000     6.050000000
C    -0.980000000     1.774000000     4.434000000
C    -0.807000000     3.088000000     4.050000000
H     0.089000000     3.519000000     4.489000000
C    -2.067000000     0.987000000     3.983000000
C    -2.874000000     1.554000000     2.980000000
H    -3.604000000     0.987000000     2.409000000
C    -2.748000000     2.855000000     2.628000000
O    -3.541000000     3.227000000     1.551000000
C    -3.125000000     3.125000000     0.193000000
C    -4.074000000     2.545000000    -0.824000000
C    -4.003000000     2.942000000    -2.135000000
H    -3.211000000     3.632000000    -2.414000000
C    -5.119000000     1.721000000    -0.466000000
H    -5.310000000     1.531000000     0.587000000
O    -2.570000000     4.458000000    -0.148000000
H    -2.304000000     2.394000000     0.154000000
C    -1.640000000     3.625000000     3.064000000
C    -1.305000000     5.007000000     2.522000000
H    -0.799000000     5.566000000     3.312000000
H    -2.188000000     5.535000000     2.156000000
C    -0.521000000     4.813000000     1.281000000
C     0.872000000     4.765000000     1.310000000
H     1.509000000     4.965000000     2.168000000
C    -1.204000000     4.634000000     0.000000000
C    -0.498000000     4.365000000    -1.150000000
H    -1.071000000     4.137000000    -2.045000000
C     0.890000000     4.172000000    -1.053000000
O     1.540000000     3.797000000    -2.204000000
C     2.098000000     2.498000000    -2.312000000
C     1.837000000     1.798000000    -3.663000000
C     0.751000000     2.235000000    -4.404000000
H     0.116000000     3.028000000    -4.016000000
C     2.596000000     0.734000000    -4.113000000
H     3.427000000     0.447000000    -3.474000000
O     3.500000000     2.524000000    -2.062000000
H     1.610000000     1.789000000    -1.626000000
C     1.565000000     4.351000000     0.162000000
C     3.097000000     4.380000000     0.166000000
H     3.445000000     5.084000000     0.925000000
H     3.361000000     4.885000000    -0.765000000
C     3.710000000     2.972000000     0.312000000
C     3.889000000     2.152000000    -0.781000000
C     4.435000000     0.879000000    -0.572000000
H     4.482000000     0.220000000    -1.435000000
C     4.634000000     0.412000000     0.716000000
O     4.888000000    -0.921000000     0.831000000
C     3.746000000    -1.788000000     1.201000000
H     2.830000000    -1.269000000     0.880000000
C     3.866000000    -3.100000000     0.441000000
C     3.365000000    -4.346000000     0.879000000
H     3.074000000    -4.334000000     1.926000000
C     4.365000000    -3.081000000    -0.897000000
H     4.673000000    -2.104000000    -1.260000000
C     4.612000000    -4.228000000    -1.712000000
O     5.159000000    -4.247000000    -2.967000000
C     4.121000000    -5.364000000    -1.173000000
H     4.272000000    -6.299000000    -1.707000000
C     3.319000000    -5.389000000     0.020000000
O     2.718000000    -6.603000000     0.475000000
C     1.735000000    -6.707000000     1.486000000
C     0.346000000    -6.433000000     1.316000000
H     0.037000000    -6.024000000     0.358000000
C     2.115000000    -7.180000000     2.749000000
H     3.160000000    -7.451000000     2.873000000
C     1.255000000    -7.481000000     3.750000000
H     1.604000000    -7.841000000     4.714000000
C    -0.120000000    -7.191000000     3.591000000
H    -0.816000000    -7.261000000     4.423000000
C    -0.535000000    -6.550000000     2.393000000
O    -1.848000000    -6.143000000     2.309000000
C    -2.312000000    -4.863000000     2.357000000
C    -3.674000000    -4.654000000     2.064000000
H    -4.276000000    -5.446000000     1.626000000
C    -4.256000000    -3.407000000     2.154000000
O    -5.576000000    -3.348000000     1.767000000
C    -6.219000000    -2.177000000     1.635000000
C    -6.283000000    -1.607000000     0.379000000
H    -5.770000000    -2.073000000    -0.459000000
C    -6.806000000    -1.525000000     2.685000000
H    -6.727000000    -1.915000000     3.696000000
C    -7.396000000    -0.262000000     2.543000000
H    -7.766000000     0.255000000     3.425000000
C    -7.455000000     0.338000000     1.303000000
H    -7.937000000     1.305000000     1.183000000
C    -6.913000000    -0.359000000     0.173000000
O    -7.001000000     0.320000000    -1.087000000
C    -5.990000000     1.213000000    -1.471000000
C    -5.845000000     1.532000000    -2.775000000
H    -6.514000000     1.165000000    -3.549000000
C    -4.854000000     2.463000000    -3.089000000
O    -4.893000000     2.975000000    -4.367000000
C    -3.761000000     3.398000000    -4.931000000
C    -2.638000000     2.609000000    -5.108000000
H    -2.511000000     1.580000000    -4.783000000
C    -3.792000000     4.674000000    -5.533000000
H    -4.613000000     5.365000000    -5.363000000
C    -2.650000000     5.132000000    -6.312000000
H    -2.855000000     6.077000000    -6.808000000
C    -1.567000000     4.277000000    -6.516000000
H    -0.758000000     4.684000000    -7.116000000
C    -1.572000000     3.061000000    -5.849000000
O    -0.636000000     2.095000000    -6.297000000
C     0.445000000     1.698000000    -5.666000000
C     1.221000000     0.594000000    -6.088000000
H     0.881000000     0.025000000    -6.950000000
C     2.336000000     0.116000000    -5.323000000
O     3.105000000    -0.952000000    -5.766000000
C     4.220000000    -1.488000000    -5.191000000
C     5.346000000    -0.808000000    -5.372000000
H     5.446000000     0.042000000    -6.042000000
C     6.493000000    -1.330000000    -4.724000000
H     7.426000000    -0.797000000    -4.893000000
C     6.449000000    -2.519000000    -3.947000000
H     7.369000000    -2.829000000    -3.458000000
C     5.276000000    -3.124000000    -3.730000000
C     4.155000000    -2.632000000    -4.366000000
H     3.176000000    -3.077000000    -4.210000000
C    -0.559000000    -1.692000000     0.039000000
H    -0.439000000    -2.687000000     0.461000000
C     0.101000000    -0.606000000     0.574000000
H     0.780000000    -0.696000000     1.418000000
C    -0.126000000     0.633000000    -0.017000000
H     0.269000000     1.612000000     0.328000000
C    -1.015000000     0.815000000    -1.087000000
H    -1.170000000     1.826000000    -1.455000000
C    -1.561000000    -0.338000000    -1.667000000
H    -2.231000000    -0.167000000    -2.506000000
C    -1.385000000    -1.543000000    -1.083000000
C    -1.945000000    -2.760000000    -1.860000000
O    -2.730000000    -2.594000000    -2.780000000
O    -1.623000000    -3.905000000    -1.580000000
O     1.696000000    -7.387000000    -2.301000000
H     1.560000000    -6.440000000    -2.265000000
H     2.357000000    -7.560000000    -1.631000000
O    -2.285000000    -4.883000000    -4.376000000
H    -1.708000000    -4.611000000    -5.090000000
H    -2.562000000    -4.064000000    -3.966000000
O    -4.755000000    -1.744000000    -4.232000000
H    -3.981000000    -1.896000000    -3.691000000
H    -4.558000000    -2.182000000    -5.060000000
O    -4.827000000    -4.475000000    -2.274000000
H    -4.191000000    -3.761000000    -2.330000000
H    -4.307000000    -5.268000000    -2.399000000
O    -2.703000000    -0.090000000    -7.383000000
H    -2.171000000     0.677000000    -7.595000000
H    -3.528000000     0.055000000    -7.847000000
O    -6.180000000    -5.193000000    -0.014000000
H    -6.654000000    -4.441000000     0.341000000
H    -5.734000000    -4.852000000    -0.789000000
O    -0.036000000    -4.697000000    -6.211000000
H     0.280000000    -4.071000000    -6.862000000
H     0.759000000    -5.091000000    -5.852000000
O    -5.929000000    -7.944000000    -0.985000000
H    -6.193000000    -8.458000000    -0.222000000
H    -5.889000000    -7.043000000    -0.665000000
O     0.977000000    -2.197000000    -3.089000000
H     0.492000000    -1.972000000    -3.883000000
H     0.852000000    -1.444000000    -2.511000000
O     0.482000000    -2.423000000    -7.704000000
H     0.094000000    -2.038000000    -6.918000000
H     0.146000000    -1.889000000    -8.424000000
O    -3.547000000    -2.811000000    -6.802000000
H    -3.105000000    -1.968000000    -6.904000000
H    -3.668000000    -3.128000000    -7.697000000
O     1.206000000    -6.768000000    -5.030000000
H     0.359000000    -6.422000000    -5.313000000
H     1.129000000    -6.840000000    -4.078000000
O    -3.129000000    -6.714000000    -2.430000000
H    -3.582000000    -7.222000000    -3.103000000
H    -2.635000000    -6.056000000    -2.920000000
O    -3.632000000    -7.167000000    -5.601000000
H    -3.445000000    -6.248000000    -5.408000000
H    -3.476000000    -7.250000000    -6.542000000
O    -0.945000000    -1.428000000    -4.799000000
H    -1.677000000    -1.112000000    -5.328000000
H    -1.358000000    -1.900000000    -4.076000000
O    -6.684000000    -5.645000000    -4.122000000
H    -6.233000000    -4.993000000    -3.586000000
H    -6.844000000    -6.376000000    -3.525000000
O    -7.017000000    -1.928000000    -2.632000000
H    -6.229000000    -2.150000000    -3.128000000
H    -6.865000000    -1.032000000    -2.330000000
O     0.785000000    -4.815000000    -2.453000000
H     1.060000000    -3.916000000    -2.631000000
H    -0.126000000    -4.736000000    -2.171000000
O    -1.781000000    -8.416000000    -0.497000000
H    -2.129000000    -7.534000000    -0.623000000
H    -1.559000000    -8.714000000    -1.379000000
