215
-1432.36620
C    -3.262000000    -2.620000000     3.360000000
H    -3.938000000    -1.801000000     3.592000000
C    -1.847000000    -2.535000000     3.520000000
C    -1.071000000    -3.590000000     3.058000000
H     0.003000000    -3.454000000     2.964000000
C    -1.166000000    -1.203000000     3.880000000
O    -2.117000000    -0.298000000     4.620000000
H    -0.941000000    -0.702000000     2.927000000
O     0.015000000    -1.456000000     4.627000000
C     1.081000000    -0.723000000     4.300000000
C     2.073000000    -1.407000000     3.571000000
H     1.987000000    -2.476000000     3.395000000
C     3.192000000    -0.717000000     3.054000000
O     4.027000000    -1.393000000     2.267000000
C     3.419000000     0.599000000     3.477000000
C     4.594000000     1.474000000     2.906000000
H     4.711000000     2.339000000     3.562000000
C     4.415000000     2.018000000     1.534000000
C     3.713000000     3.215000000     1.337000000
H     3.231000000     3.662000000     2.202000000
H     5.475000000     0.845000000     3.051000000
C     2.466000000     1.213000000     4.223000000
H     2.505000000     2.278000000     4.435000000
C     1.266000000     0.590000000     4.627000000
C     0.207000000     1.338000000     5.435000000
H     0.673000000     2.207000000     5.904000000
H    -0.139000000     0.821000000     6.332000000
C    -0.983000000     1.894000000     4.647000000
C    -0.851000000     3.153000000     4.003000000
H     0.025000000     3.753000000     4.237000000
C    -2.052000000     1.029000000     4.274000000
C    -2.992000000     1.533000000     3.368000000
H    -3.779000000     0.895000000     2.975000000
C    -2.904000000     2.777000000     2.844000000
O    -3.832000000     3.106000000     1.885000000
C    -3.267000000     2.846000000     0.521000000
C    -4.304000000     2.260000000    -0.485000000
C    -4.665000000     2.799000000    -1.783000000
H    -4.282000000     3.751000000    -2.138000000
C    -4.669000000     0.962000000    -0.247000000
H    -4.455000000     0.481000000     0.704000000
O    -2.991000000     4.209000000     0.162000000
H    -2.347000000     2.249000000     0.443000000
C    -1.851000000     3.609000000     3.165000000
C    -1.630000000     4.948000000     2.540000000
H    -0.968000000     5.570000000     3.145000000
H    -2.622000000     5.370000000     2.369000000
C    -0.932000000     4.801000000     1.225000000
C     0.418000000     4.975000000     1.031000000
H     0.980000000     5.380000000     1.868000000
C    -1.721000000     4.595000000     0.105000000
C    -1.162000000     4.291000000    -1.133000000
H    -1.739000000     3.973000000    -1.997000000
C     0.257000000     4.232000000    -1.216000000
O     0.807000000     3.742000000    -2.354000000
C     1.634000000     2.540000000    -2.375000000
C     1.320000000     1.744000000    -3.651000000
C     0.074000000     1.962000000    -4.284000000
H    -0.687000000     2.567000000    -3.799000000
C     2.183000000     0.742000000    -4.131000000
H     3.123000000     0.533000000    -3.627000000
O     3.026000000     2.804000000    -2.360000000
H     1.504000000     1.909000000    -1.483000000
C     1.091000000     4.626000000    -0.152000000
C     2.547000000     4.889000000    -0.176000000
H     2.906000000     5.656000000     0.513000000
H     2.796000000     5.347000000    -1.136000000
C     3.359000000     3.603000000     0.035000000
C     3.562000000     2.707000000    -1.074000000
C     4.172000000     1.443000000    -0.836000000
H     4.304000000     0.703000000    -1.621000000
C     4.626000000     1.137000000     0.431000000
O     5.178000000    -0.154000000     0.599000000
C     4.128000000    -1.183000000     0.828000000
H     3.137000000    -0.826000000     0.509000000
C     4.410000000    -2.491000000     0.156000000
C     3.974000000    -3.691000000     0.725000000
H     3.513000000    -3.801000000     1.704000000
C     4.919000000    -2.588000000    -1.141000000
H     5.249000000    -1.721000000    -1.707000000
C     4.924000000    -3.820000000    -1.874000000
O     5.257000000    -3.964000000    -3.196000000
C     4.589000000    -5.037000000    -1.175000000
H     4.590000000    -5.998000000    -1.684000000
C     4.174000000    -4.927000000     0.149000000
O     3.651000000    -6.069000000     0.771000000
C     2.754000000    -6.167000000     1.808000000
C     1.481000000    -5.736000000     1.584000000
H     1.281000000    -5.212000000     0.652000000
C     3.088000000    -6.825000000     2.956000000
H     4.087000000    -7.232000000     3.095000000
C     2.154000000    -6.905000000     3.997000000
H     2.383000000    -7.313000000     4.978000000
C     0.818000000    -6.558000000     3.667000000
H     0.015000000    -6.661000000     4.392000000
C     0.497000000    -5.969000000     2.462000000
O    -0.831000000    -5.782000000     2.115000000
C    -1.659000000    -4.777000000     2.605000000
C    -3.011000000    -4.902000000     2.562000000
H    -3.433000000    -5.800000000     2.118000000
C    -3.829000000    -3.772000000     2.851000000
O    -5.158000000    -3.973000000     2.904000000
C    -5.884000000    -3.078000000     2.107000000
C    -5.423000000    -2.498000000     0.915000000
H    -4.414000000    -2.756000000     0.604000000
C    -7.206000000    -2.823000000     2.480000000
H    -7.490000000    -3.229000000     3.448000000
C    -7.987000000    -1.839000000     1.793000000
H    -8.957000000    -1.512000000     2.158000000
C    -7.440000000    -1.157000000     0.770000000
H    -8.010000000    -0.449000000     0.174000000
C    -6.191000000    -1.635000000     0.237000000
O    -5.753000000    -1.110000000    -0.996000000
C    -5.278000000     0.153000000    -1.227000000
C    -5.560000000     0.685000000    -2.479000000
H    -5.962000000     0.018000000    -3.238000000
C    -5.236000000     1.974000000    -2.774000000
O    -5.515000000     2.482000000    -4.002000000
C    -4.514000000     2.891000000    -4.811000000
C    -3.517000000     1.941000000    -5.132000000
H    -3.488000000     0.975000000    -4.633000000
C    -4.465000000     4.133000000    -5.368000000
H    -5.240000000     4.860000000    -5.137000000
C    -3.427000000     4.439000000    -6.149000000
H    -3.344000000     5.418000000    -6.615000000
C    -2.334000000     3.608000000    -6.429000000
H    -1.443000000     3.974000000    -6.933000000
C    -2.439000000     2.341000000    -5.894000000
O    -1.436000000     1.439000000    -6.179000000
C    -0.253000000     1.246000000    -5.443000000
C     0.617000000     0.352000000    -5.960000000
H     0.302000000    -0.170000000    -6.860000000
C     1.850000000     0.070000000    -5.363000000
O     2.569000000    -1.028000000    -5.931000000
C     3.815000000    -1.370000000    -5.383000000
C     5.022000000    -0.626000000    -5.708000000
H     4.942000000     0.227000000    -6.377000000
C     6.272000000    -1.038000000    -5.234000000
H     7.135000000    -0.395000000    -5.387000000
C     6.323000000    -2.112000000    -4.391000000
H     7.189000000    -2.419000000    -3.809000000
C     5.213000000    -2.838000000    -3.994000000
C     3.936000000    -2.455000000    -4.501000000
H     3.131000000    -3.162000000    -4.315000000
C    -0.596000000    -2.401000000    -0.345000000
H    -0.426000000    -3.449000000    -0.113000000
C     0.078000000    -1.431000000     0.358000000
H     0.728000000    -1.692000000     1.189000000
C    -0.147000000    -0.082000000     0.106000000
H     0.383000000     0.587000000     0.745000000
C    -1.073000000     0.246000000    -0.890000000
H    -1.287000000     1.281000000    -1.145000000
C    -1.701000000    -0.774000000    -1.657000000
H    -2.455000000    -0.530000000    -2.401000000
C    -1.529000000    -2.107000000    -1.377000000
C    -2.134000000    -3.212000000    -2.261000000
O    -2.758000000    -2.921000000    -3.248000000
O    -1.912000000    -4.388000000    -2.018000000
O     1.410000000    -7.563000000    -1.480000000
H     1.149000000    -6.934000000    -2.153000000
H     2.355000000    -7.661000000    -1.598000000
O    -3.304000000    -5.304000000    -4.831000000
H    -4.247000000    -5.403000000    -4.965000000
H    -3.221000000    -4.524000000    -4.283000000
O    -5.465000000    -2.734000000    -4.164000000
H    -4.705000000    -2.458000000    -3.652000000
H    -5.201000000    -2.601000000    -5.075000000
O    -3.118000000    -8.440000000    -5.102000000
H    -3.218000000    -7.489000000    -5.123000000
H    -2.434000000    -8.595000000    -4.451000000
O    -5.938000000    -4.516000000    -2.020000000
H    -5.945000000    -4.879000000    -2.905000000
H    -5.062000000    -4.144000000    -1.920000000
O    -2.661000000    -1.323000000    -7.364000000
H    -2.409000000    -0.423000000    -7.159000000
H    -2.796000000    -1.324000000    -8.312000000
O    -5.731000000    -6.542000000    -0.077000000
H    -5.646000000    -5.667000000    -0.455000000
H    -6.667000000    -6.736000000    -0.131000000
O    -4.119000000    -8.160000000    -1.595000000
H    -3.388000000    -7.579000000    -1.386000000
H    -4.882000000    -7.737000000    -1.202000000
O     0.947000000    -2.589000000    -3.286000000
H     0.535000000    -2.354000000    -4.117000000
H     0.661000000    -1.908000000    -2.676000000
O     0.499000000    -2.682000000    -8.065000000
H    -0.151000000    -2.395000000    -7.423000000
H     0.192000000    -2.319000000    -8.896000000
O    -5.004000000    -2.520000000    -6.780000000
H    -4.259000000    -1.933000000    -6.903000000
H    -5.076000000    -2.993000000    -7.609000000
O    -7.810000000    -1.465000000    -4.298000000
H    -6.999000000    -1.960000000    -4.180000000
H    -8.049000000    -1.612000000    -5.213000000
O    -2.555000000    -6.190000000    -7.380000000
H    -2.878000000    -5.504000000    -7.965000000
H    -2.583000000    -5.794000000    -6.509000000
O     2.517000000    -5.515000000    -4.810000000
H     3.089000000    -6.218000000    -4.503000000
H     1.753000000    -5.560000000    -4.235000000
O    -2.175000000    -6.558000000    -0.484000000
H    -1.377000000    -6.522000000     0.043000000
H    -2.135000000    -5.775000000    -1.032000000
O    -0.499000000    -7.958000000    -4.419000000
H    -0.664000000    -7.029000000    -4.260000000
H     0.426000000    -7.999000000    -4.662000000
O    -1.274000000    -2.374000000    -5.336000000
H    -1.941000000    -2.228000000    -6.007000000
H    -1.766000000    -2.652000000    -4.564000000
O    -5.828000000    -5.888000000    -4.962000000
H    -6.028000000    -6.084000000    -5.878000000
H    -5.636000000    -6.741000000    -4.572000000
O     0.291000000    -5.364000000    -2.946000000
H     0.780000000    -4.544000000    -3.017000000
H    -0.499000000    -5.130000000    -2.459000000
