215
-1477.72814
C    -3.322000000    -2.582000000     2.683000000
H    -3.784000000    -1.670000000     2.315000000
C    -2.180000000    -2.417000000     3.536000000
C    -1.406000000    -3.484000000     3.907000000
H    -0.487000000    -3.345000000     4.470000000
C    -1.693000000    -1.063000000     3.816000000
O    -2.742000000    -0.163000000     4.113000000
H    -1.236000000    -0.766000000     2.860000000
O    -0.717000000    -1.030000000     4.963000000
C     0.407000000    -0.310000000     4.826000000
C     1.542000000    -0.989000000     4.474000000
H     1.573000000    -2.075000000     4.435000000
C     2.658000000    -0.313000000     3.992000000
O     3.605000000    -1.058000000     3.341000000
C     2.630000000     1.090000000     3.928000000
C     3.849000000     1.824000000     3.502000000
H     4.026000000     2.726000000     4.090000000
C     3.913000000     2.160000000     1.990000000
C     3.409000000     3.402000000     1.503000000
H     3.049000000     4.173000000     2.180000000
H     4.701000000     1.181000000     3.735000000
C     1.514000000     1.809000000     4.352000000
H     1.619000000     2.891000000     4.356000000
C     0.403000000     1.079000000     4.798000000
C    -0.868000000     1.788000000     5.156000000
H    -0.658000000     2.754000000     5.622000000
H    -1.468000000     1.274000000     5.909000000
C    -1.716000000     2.048000000     3.957000000
C    -1.631000000     3.293000000     3.289000000
H    -0.957000000     4.112000000     3.529000000
C    -2.658000000     1.087000000     3.562000000
C    -3.394000000     1.355000000     2.398000000
H    -4.097000000     0.617000000     2.020000000
C    -3.278000000     2.534000000     1.704000000
O    -4.005000000     2.653000000     0.511000000
C    -3.239000000     2.429000000    -0.778000000
C    -3.992000000     1.642000000    -1.785000000
C    -3.799000000     1.748000000    -3.121000000
H    -3.233000000     2.576000000    -3.542000000
C    -4.939000000     0.734000000    -1.306000000
H    -5.228000000     0.633000000    -0.263000000
O    -2.937000000     3.711000000    -1.327000000
H    -2.351000000     1.821000000    -0.550000000
C    -2.399000000     3.517000000     2.120000000
C    -2.192000000     4.782000000     1.311000000
H    -1.808000000     5.559000000     1.976000000
H    -3.133000000     5.172000000     0.917000000
C    -1.217000000     4.633000000     0.146000000
C     0.133000000     4.946000000     0.361000000
H     0.425000000     5.211000000     1.374000000
C    -1.647000000     4.218000000    -1.145000000
C    -0.719000000     4.074000000    -2.164000000
H    -1.048000000     3.758000000    -3.150000000
C     0.646000000     4.330000000    -1.882000000
O     1.575000000     4.021000000    -2.861000000
C     2.150000000     2.700000000    -2.678000000
C     2.081000000     1.902000000    -4.003000000
C     1.171000000     2.223000000    -5.016000000
H     0.527000000     3.090000000    -4.894000000
C     2.788000000     0.716000000    -4.089000000
H     3.605000000     0.433000000    -3.430000000
O     3.416000000     2.905000000    -2.179000000
H     1.534000000     2.128000000    -1.968000000
C     1.147000000     4.735000000    -0.644000000
C     2.683000000     5.043000000    -0.302000000
H     2.957000000     5.824000000     0.410000000
H     3.253000000     5.210000000    -1.219000000
C     3.352000000     3.723000000     0.152000000
C     3.713000000     2.715000000    -0.789000000
C     4.286000000     1.493000000    -0.371000000
H     4.651000000     0.759000000    -1.085000000
C     4.365000000     1.215000000     0.989000000
O     4.711000000    -0.127000000     1.334000000
C     3.689000000    -1.014000000     1.830000000
H     2.718000000    -0.635000000     1.480000000
C     3.884000000    -2.395000000     1.217000000
C     3.432000000    -3.542000000     1.922000000
H     3.101000000    -3.384000000     2.945000000
C     4.426000000    -2.536000000    -0.059000000
H     4.835000000    -1.646000000    -0.530000000
C     4.436000000    -3.784000000    -0.678000000
O     4.857000000    -3.896000000    -2.010000000
C     3.883000000    -4.920000000    -0.024000000
H     3.827000000    -5.908000000    -0.472000000
C     3.512000000    -4.792000000     1.340000000
O     3.039000000    -5.936000000     2.003000000
C     2.283000000    -5.886000000     3.162000000
C     0.919000000    -5.731000000     3.146000000
H     0.449000000    -5.680000000     2.167000000
C     2.838000000    -6.121000000     4.346000000
H     3.898000000    -6.353000000     4.411000000
C     2.031000000    -6.089000000     5.525000000
H     2.554000000    -6.404000000     6.424000000
C     0.655000000    -6.020000000     5.505000000
H    -0.008000000    -6.253000000     6.334000000
C     0.111000000    -5.894000000     4.241000000
O    -1.253000000    -5.944000000     4.122000000
C    -1.828000000    -4.809000000     3.528000000
C    -3.029000000    -5.045000000     2.817000000
H    -3.095000000    -6.064000000     2.445000000
C    -3.773000000    -3.948000000     2.393000000
O    -4.879000000    -4.171000000     1.588000000
C    -5.741000000    -3.216000000     1.162000000
C    -5.711000000    -2.711000000    -0.125000000
H    -4.983000000    -3.073000000    -0.845000000
C    -6.637000000    -2.608000000     2.072000000
H    -6.772000000    -3.096000000     3.034000000
C    -7.515000000    -1.633000000     1.703000000
H    -8.227000000    -1.180000000     2.388000000
C    -7.447000000    -1.086000000     0.428000000
H    -8.107000000    -0.272000000     0.139000000
C    -6.546000000    -1.592000000    -0.445000000
O    -6.441000000    -1.095000000    -1.731000000
C    -5.594000000    -0.155000000    -2.199000000
C    -5.265000000    -0.108000000    -3.562000000
H    -5.812000000    -0.829000000    -4.165000000
C    -4.404000000     0.870000000    -4.047000000
O    -4.332000000     1.051000000    -5.417000000
C    -3.357000000     1.847000000    -5.941000000
C    -2.081000000     1.351000000    -6.228000000
H    -1.731000000     0.330000000    -6.100000000
C    -3.725000000     3.165000000    -6.180000000
H    -4.731000000     3.521000000    -5.969000000
C    -2.782000000     4.082000000    -6.750000000
H    -3.068000000     5.128000000    -6.820000000
C    -1.568000000     3.595000000    -7.075000000
H    -0.840000000     4.231000000    -7.571000000
C    -1.142000000     2.238000000    -6.745000000
O     0.132000000     1.774000000    -7.113000000
C     1.064000000     1.422000000    -6.144000000
C     1.892000000     0.313000000    -6.289000000
H     1.922000000    -0.227000000    -7.232000000
C     2.766000000    -0.019000000    -5.271000000
O     3.634000000    -1.064000000    -5.630000000
C     4.689000000    -1.440000000    -4.757000000
C     5.902000000    -0.789000000    -4.547000000
H     6.133000000     0.034000000    -5.220000000
C     6.752000000    -1.073000000    -3.488000000
H     7.717000000    -0.575000000    -3.433000000
C     6.389000000    -2.161000000    -2.637000000
H     7.056000000    -2.316000000    -1.793000000
C     5.228000000    -2.893000000    -2.858000000
C     4.424000000    -2.552000000    -3.960000000
H     3.521000000    -3.107000000    -4.199000000
C    -0.826000000    -1.872000000    -0.238000000
H    -0.832000000    -2.830000000     0.275000000
C    -0.051000000    -0.851000000     0.216000000
H     0.560000000    -0.954000000     1.109000000
C     0.084000000     0.299000000    -0.576000000
H     0.718000000     1.098000000    -0.210000000
C    -0.692000000     0.431000000    -1.748000000
H    -0.723000000     1.356000000    -2.317000000
C    -1.506000000    -0.597000000    -2.161000000
H    -2.180000000    -0.443000000    -2.999000000
C    -1.588000000    -1.772000000    -1.383000000
C    -2.291000000    -2.974000000    -1.922000000
O    -2.528000000    -3.078000000    -3.104000000
O    -2.491000000    -3.928000000    -1.228000000
O    -2.225000000    -5.589000000    -4.283000000
H    -2.375000000    -5.284000000    -3.388000000
H    -1.907000000    -4.816000000    -4.750000000
O    -0.795000000    -2.138000000    -4.958000000
H    -1.177000000    -2.102000000    -5.835000000
H    -1.539000000    -2.307000000    -4.380000000
O     0.906000000    -7.720000000     0.228000000
H     0.260000000    -7.021000000     0.126000000
H     0.385000000    -8.515000000     0.340000000
O    -8.179000000    -2.361000000    -4.167000000
H    -8.224000000    -3.121000000    -4.748000000
H    -7.379000000    -2.496000000    -3.659000000
O    -5.530000000    -3.517000000    -3.995000000
H    -4.651000000    -3.138000000    -4.016000000
H    -5.419000000    -4.355000000    -3.545000000
O     2.606000000    -7.585000000    -2.052000000
H     2.234000000    -6.932000000    -2.645000000
H     2.051000000    -7.544000000    -1.273000000
O    -4.398000000    -5.631000000    -1.579000000
H    -3.964000000    -4.792000000    -1.423000000
H    -3.879000000    -6.265000000    -1.084000000
O    -3.502000000    -6.952000000    -6.540000000
H    -3.568000000    -6.077000000    -6.158000000
H    -4.364000000    -7.111000000    -6.924000000
O    -4.137000000    -1.752000000    -6.545000000
H    -3.857000000    -0.837000000    -6.560000000
H    -5.057000000    -1.716000000    -6.284000000
O    -0.707000000    -7.607000000    -5.666000000
H    -0.132000000    -7.936000000    -4.975000000
H    -1.258000000    -6.957000000    -5.230000000
O    -2.523000000    -7.483000000    -0.746000000
H    -1.728000000    -6.971000000    -0.896000000
H    -2.210000000    -8.307000000    -0.373000000
O     1.623000000    -1.885000000    -2.735000000
H     1.061000000    -1.508000000    -3.412000000
H     1.131000000    -1.766000000    -1.922000000
O    -3.157000000    -3.879000000    -8.039000000
H    -3.904000000    -4.206000000    -8.540000000
H    -3.496000000    -3.111000000    -7.577000000
O     2.270000000    -6.681000000    -5.063000000
H     1.621000000    -6.086000000    -4.685000000
H     2.069000000    -6.690000000    -5.999000000
O    -6.726000000    -6.565000000    -0.612000000
H    -5.987000000    -6.201000000    -1.099000000
H    -6.431000000    -7.435000000    -0.344000000
O    -0.455000000    -5.574000000    -0.777000000
H     0.068000000    -5.515000000    -1.576000000
H    -1.136000000    -4.910000000    -0.887000000
O     1.163000000    -3.901000000    -5.302000000
H     1.763000000    -3.325000000    -5.777000000
H     0.444000000    -3.329000000    -5.034000000
O    -3.943000000    -7.832000000    -3.960000000
H    -4.123000000    -7.050000000    -3.439000000
H    -3.347000000    -7.531000000    -4.646000000
O     1.354000000    -4.751000000    -2.697000000
H     1.160000000    -4.482000000    -3.594000000
H     1.822000000    -4.006000000    -2.319000000
