215
-1472.22051
C    -3.369000000    -2.109000000     3.105000000
H    -3.840000000    -1.345000000     2.491000000
C    -2.280000000    -1.887000000     3.959000000
C    -1.630000000    -2.891000000     4.576000000
H    -0.818000000    -2.683000000     5.269000000
C    -1.727000000    -0.425000000     3.977000000
O    -2.793000000     0.415000000     4.064000000
H    -1.179000000    -0.341000000     3.027000000
O    -0.813000000    -0.210000000     5.063000000
C     0.379000000     0.433000000     4.864000000
C     1.461000000    -0.288000000     4.343000000
H     1.511000000    -1.372000000     4.400000000
C     2.580000000     0.365000000     3.770000000
O     3.601000000    -0.489000000     3.251000000
C     2.712000000     1.758000000     3.767000000
C     3.908000000     2.504000000     3.265000000
H     4.054000000     3.515000000     3.650000000
C     3.887000000     2.592000000     1.745000000
C     3.229000000     3.688000000     1.098000000
H     2.824000000     4.551000000     1.621000000
H     4.809000000     1.937000000     3.508000000
C     1.565000000     2.479000000     4.182000000
H     1.606000000     3.565000000     4.180000000
C     0.448000000     1.829000000     4.621000000
C    -0.824000000     2.613000000     4.879000000
H    -0.609000000     3.662000000     5.094000000
H    -1.362000000     2.291000000     5.773000000
C    -1.731000000     2.604000000     3.641000000
C    -1.660000000     3.656000000     2.743000000
H    -0.820000000     4.346000000     2.715000000
C    -2.742000000     1.589000000     3.370000000
C    -3.517000000     1.711000000     2.207000000
H    -4.130000000     0.832000000     2.027000000
C    -3.514000000     2.907000000     1.415000000
O    -4.156000000     2.825000000     0.224000000
C    -3.384000000     2.294000000    -0.920000000
C    -4.112000000     1.244000000    -1.778000000
C    -3.726000000     0.867000000    -3.049000000
H    -2.829000000     1.322000000    -3.461000000
C    -5.102000000     0.549000000    -1.184000000
H    -5.429000000     0.849000000    -0.192000000
O    -3.139000000     3.556000000    -1.644000000
H    -2.460000000     1.871000000    -0.499000000
C    -2.560000000     3.885000000     1.681000000
C    -2.402000000     5.127000000     0.791000000
H    -1.989000000     5.949000000     1.379000000
H    -3.397000000     5.352000000     0.401000000
C    -1.451000000     4.908000000    -0.372000000
C    -0.095000000     5.113000000    -0.208000000
H     0.333000000     5.623000000     0.651000000
C    -1.867000000     4.097000000    -1.483000000
C    -0.975000000     3.771000000    -2.516000000
H    -1.284000000     3.208000000    -3.392000000
C     0.389000000     4.017000000    -2.277000000
O     1.217000000     3.517000000    -3.214000000
C     1.946000000     2.263000000    -2.952000000
C     2.133000000     1.378000000    -4.117000000
C     1.140000000     1.316000000    -5.100000000
H     0.401000000     2.112000000    -5.141000000
C     3.195000000     0.508000000    -4.166000000
H     4.016000000     0.545000000    -3.454000000
O     3.286000000     2.628000000    -2.432000000
H     1.375000000     1.775000000    -2.148000000
C     0.818000000     4.666000000    -1.124000000
C     2.348000000     4.871000000    -0.957000000
H     2.560000000     5.748000000    -0.341000000
H     2.931000000     5.103000000    -1.850000000
C     2.979000000     3.706000000    -0.281000000
C     3.506000000     2.686000000    -1.080000000
C     4.069000000     1.590000000    -0.490000000
H     4.331000000     0.754000000    -1.134000000
C     4.342000000     1.522000000     0.897000000
O     4.741000000     0.309000000     1.458000000
C     3.745000000    -0.637000000     1.865000000
H     2.811000000    -0.284000000     1.403000000
C     3.960000000    -2.016000000     1.390000000
C     3.103000000    -3.020000000     1.846000000
H     2.302000000    -2.728000000     2.520000000
C     4.814000000    -2.244000000     0.342000000
H     5.432000000    -1.449000000    -0.068000000
C     4.798000000    -3.522000000    -0.282000000
O     5.650000000    -3.703000000    -1.366000000
C     3.915000000    -4.506000000     0.185000000
H     3.906000000    -5.461000000    -0.335000000
C     3.109000000    -4.257000000     1.256000000
O     2.307000000    -5.311000000     1.698000000
C     1.899000000    -5.434000000     2.996000000
C     0.580000000    -5.230000000     3.232000000
H    -0.039000000    -4.785000000     2.457000000
C     2.743000000    -6.116000000     3.942000000
H     3.787000000    -6.302000000     3.703000000
C     2.188000000    -6.501000000     5.132000000
H     2.786000000    -6.780000000     5.996000000
C     0.824000000    -6.192000000     5.432000000
H     0.497000000    -6.492000000     6.424000000
C     0.012000000    -5.546000000     4.486000000
O    -1.301000000    -5.245000000     4.880000000
C    -2.075000000    -4.175000000     4.396000000
C    -2.983000000    -4.396000000     3.363000000
H    -3.211000000    -5.376000000     2.952000000
C    -3.658000000    -3.395000000     2.781000000
O    -4.620000000    -3.756000000     1.853000000
C    -5.711000000    -2.988000000     1.547000000
C    -5.803000000    -2.473000000     0.262000000
H    -5.115000000    -2.651000000    -0.560000000
C    -6.742000000    -2.836000000     2.481000000
H    -6.707000000    -3.256000000     3.483000000
C    -7.839000000    -2.096000000     2.071000000
H    -8.593000000    -1.991000000     2.847000000
C    -7.899000000    -1.326000000     0.830000000
H    -8.767000000    -0.721000000     0.582000000
C    -6.906000000    -1.642000000    -0.109000000
O    -6.930000000    -1.030000000    -1.347000000
C    -5.797000000    -0.469000000    -1.857000000
C    -5.378000000    -0.810000000    -3.171000000
H    -5.909000000    -1.507000000    -3.814000000
C    -4.326000000    -0.070000000    -3.782000000
O    -3.899000000    -0.459000000    -5.069000000
C    -3.130000000     0.339000000    -5.915000000
C    -1.841000000    -0.109000000    -6.261000000
H    -1.479000000    -1.035000000    -5.822000000
C    -3.516000000     1.646000000    -6.187000000
H    -4.462000000     2.089000000    -5.884000000
C    -2.647000000     2.454000000    -6.961000000
H    -2.937000000     3.386000000    -7.439000000
C    -1.358000000     2.023000000    -7.291000000
H    -0.670000000     2.651000000    -7.852000000
C    -0.972000000     0.748000000    -6.925000000
O     0.314000000     0.309000000    -7.201000000
C     1.192000000     0.389000000    -6.103000000
C     2.276000000    -0.481000000    -6.178000000
H     2.342000000    -1.184000000    -7.004000000
C     3.304000000    -0.441000000    -5.210000000
O     4.446000000    -1.248000000    -5.335000000
C     5.231000000    -1.505000000    -4.222000000
C     6.396000000    -0.655000000    -4.145000000
H     6.612000000     0.097000000    -4.900000000
C     7.283000000    -0.873000000    -3.046000000
H     8.207000000    -0.368000000    -2.777000000
C     7.049000000    -1.934000000    -2.139000000
H     7.706000000    -2.173000000    -1.307000000
C     5.894000000    -2.794000000    -2.341000000
C     4.908000000    -2.454000000    -3.272000000
H     3.946000000    -2.960000000    -3.308000000
C    -0.437000000    -2.399000000    -0.005000000
H    -0.372000000    -3.358000000     0.503000000
C     0.327000000    -1.345000000     0.522000000
H     0.918000000    -1.438000000     1.429000000
C     0.125000000    -0.089000000     0.046000000
H     0.518000000     0.782000000     0.616000000
C    -0.607000000     0.062000000    -1.133000000
H    -0.681000000     1.084000000    -1.498000000
C    -1.117000000    -1.075000000    -1.797000000
H    -1.599000000    -1.050000000    -2.772000000
C    -1.121000000    -2.277000000    -1.161000000
C    -1.914000000    -3.406000000    -1.803000000
O    -2.263000000    -3.352000000    -3.008000000
O    -1.860000000    -4.524000000    -1.226000000
O     1.375000000    -6.548000000    -3.426000000
H     1.124000000    -7.404000000    -3.079000000
H     1.365000000    -5.968000000    -2.664000000
O    -2.398000000    -6.498000000    -3.467000000
H    -2.043000000    -5.755000000    -2.979000000
H    -2.286000000    -6.257000000    -4.386000000
O    -3.462000000    -4.533000000    -7.850000000
H    -4.022000000    -4.057000000    -8.463000000
H    -3.353000000    -3.935000000    -7.111000000
O    -2.056000000    -7.685000000     3.279000000
H    -1.427000000    -6.964000000     3.293000000
H    -2.044000000    -7.996000000     2.373000000
O    -3.301000000    -3.190000000    -5.413000000
H    -2.977000000    -3.523000000    -4.576000000
H    -3.573000000    -2.292000000    -5.223000000
O    -0.407000000    -8.837000000    -3.445000000
H    -0.732000000    -7.954000000    -3.270000000
H    -1.171000000    -9.402000000    -3.325000000
O    -4.461000000    -5.443000000    -1.029000000
H    -3.514000000    -5.358000000    -1.136000000
H    -4.775000000    -4.543000000    -0.948000000
O    -2.019000000    -8.067000000     0.435000000
H    -1.573000000    -7.271000000     0.145000000
H    -2.644000000    -8.259000000    -0.264000000
O    -6.314000000    -5.752000000    -3.248000000
H    -5.504000000    -5.624000000    -2.755000000
H    -6.197000000    -6.595000000    -3.687000000
O     2.998000000    -5.863000000    -5.808000000
H     2.987000000    -6.789000000    -6.047000000
H     2.827000000    -5.856000000    -4.866000000
O    -3.972000000    -8.004000000    -1.654000000
H    -4.439000000    -7.241000000    -1.314000000
H    -3.703000000    -7.747000000    -2.535000000
O     2.124000000    -1.312000000    -2.011000000
H     2.111000000    -0.780000000    -2.807000000
H     1.583000000    -0.825000000    -1.389000000
O     1.049000000    -4.338000000    -6.859000000
H     1.905000000    -4.485000000    -6.456000000
H     1.247000000    -3.943000000    -7.707000000
O    -5.959000000    -3.568000000    -5.545000000
H    -5.042000000    -3.398000000    -5.328000000
H    -5.978000000    -4.491000000    -5.798000000
O    -0.207000000    -6.469000000    -5.660000000
H    -0.005000000    -5.670000000    -6.148000000
H     0.506000000    -6.548000000    -5.026000000
O     0.288000000    -5.936000000    -0.213000000
H     0.912000000    -5.213000000    -0.143000000
H    -0.478000000    -5.550000000    -0.638000000
O     0.382000000    -2.906000000    -4.433000000
H     0.408000000    -3.380000000    -5.264000000
H    -0.545000000    -2.896000000    -4.193000000
O     1.620000000    -4.053000000    -2.214000000
H     1.209000000    -3.922000000    -3.069000000
H     1.994000000    -3.199000000    -1.996000000
O     1.912000000    -8.172000000     0.439000000
H     1.648000000    -8.381000000     1.335000000
H     1.445000000    -7.362000000     0.235000000
