215
-1457.41567
C    -3.089000000    -2.218000000     2.607000000
H    -3.647000000    -1.417000000     2.129000000
C    -2.080000000    -1.942000000     3.571000000
C    -1.364000000    -3.056000000     4.115000000
H    -0.764000000    -2.808000000     4.987000000
C    -1.722000000    -0.488000000     3.846000000
O    -2.799000000     0.378000000     3.910000000
H    -1.098000000    -0.230000000     2.978000000
O    -0.923000000    -0.374000000     5.034000000
C     0.247000000     0.365000000     4.854000000
C     1.347000000    -0.400000000     4.381000000
H     1.337000000    -1.485000000     4.304000000
C     2.495000000     0.190000000     3.950000000
O     3.492000000    -0.711000000     3.440000000
C     2.645000000     1.538000000     3.901000000
C     3.814000000     2.243000000     3.124000000
H     3.948000000     3.243000000     3.540000000
C     3.597000000     2.322000000     1.635000000
C     3.234000000     3.503000000     1.008000000
H     3.046000000     4.356000000     1.655000000
H     4.732000000     1.679000000     3.302000000
C     1.539000000     2.337000000     4.260000000
H     1.636000000     3.386000000     3.994000000
C     0.323000000     1.735000000     4.649000000
C    -0.885000000     2.537000000     4.969000000
H    -0.611000000     3.481000000     5.445000000
H    -1.471000000     2.079000000     5.769000000
C    -1.781000000     2.616000000     3.709000000
C    -1.512000000     3.717000000     2.901000000
H    -0.664000000     4.365000000     3.109000000
C    -2.627000000     1.648000000     3.267000000
C    -3.414000000     1.844000000     2.115000000
H    -4.144000000     1.137000000     1.728000000
C    -3.311000000     3.121000000     1.461000000
O    -3.926000000     3.088000000     0.287000000
C    -3.182000000     2.567000000    -0.901000000
C    -4.125000000     1.685000000    -1.823000000
C    -3.802000000     1.556000000    -3.179000000
H    -2.937000000     2.035000000    -3.630000000
C    -5.156000000     0.995000000    -1.217000000
H    -5.593000000     1.172000000    -0.238000000
O    -2.758000000     3.691000000    -1.671000000
H    -2.324000000     1.997000000    -0.514000000
C    -2.301000000     3.987000000     1.780000000
C    -2.013000000     5.182000000     0.822000000
H    -1.650000000     5.989000000     1.463000000
H    -2.881000000     5.747000000     0.476000000
C    -1.034000000     4.885000000    -0.314000000
C     0.309000000     5.231000000    -0.276000000
H     0.728000000     5.699000000     0.611000000
C    -1.457000000     4.097000000    -1.461000000
C    -0.585000000     3.692000000    -2.459000000
H    -1.036000000     3.155000000    -3.289000000
C     0.753000000     4.070000000    -2.348000000
O     1.518000000     3.538000000    -3.320000000
C     2.104000000     2.269000000    -3.021000000
C     2.116000000     1.390000000    -4.323000000
C     1.191000000     1.603000000    -5.318000000
H     0.531000000     2.463000000    -5.239000000
C     2.935000000     0.240000000    -4.257000000
H     3.477000000     0.064000000    -3.331000000
O     3.433000000     2.461000000    -2.543000000
H     1.575000000     1.638000000    -2.292000000
C     1.216000000     4.736000000    -1.253000000
C     2.693000000     4.860000000    -1.060000000
H     3.030000000     5.672000000    -0.412000000
H     3.126000000     5.071000000    -2.040000000
C     3.245000000     3.590000000    -0.405000000
C     3.593000000     2.472000000    -1.171000000
C     3.946000000     1.348000000    -0.517000000
H     4.285000000     0.541000000    -1.161000000
C     3.905000000     1.231000000     0.844000000
O     4.324000000    -0.017000000     1.331000000
C     3.472000000    -0.894000000     1.957000000
H     2.448000000    -0.665000000     1.626000000
C     3.701000000    -2.326000000     1.554000000
C     3.529000000    -3.442000000     2.431000000
H     3.457000000    -3.284000000     3.504000000
C     4.094000000    -2.615000000     0.265000000
H     4.139000000    -1.793000000    -0.444000000
C     4.431000000    -3.907000000    -0.122000000
O     4.804000000    -4.189000000    -1.422000000
C     4.252000000    -4.979000000     0.718000000
H     4.667000000    -5.936000000     0.412000000
C     3.672000000    -4.766000000     1.998000000
O     3.506000000    -5.834000000     2.872000000
C     2.514000000    -5.804000000     3.849000000
C     1.143000000    -5.599000000     3.530000000
H     0.844000000    -5.530000000     2.487000000
C     2.876000000    -6.063000000     5.129000000
H     3.918000000    -6.330000000     5.281000000
C     2.002000000    -5.980000000     6.210000000
H     2.284000000    -6.135000000     7.249000000
C     0.631000000    -5.792000000     5.933000000
H    -0.086000000    -5.892000000     6.744000000
C     0.226000000    -5.540000000     4.592000000
O    -1.090000000    -5.489000000     4.328000000
C    -1.665000000    -4.393000000     3.671000000
C    -2.693000000    -4.605000000     2.827000000
H    -3.062000000    -5.602000000     2.601000000
C    -3.410000000    -3.494000000     2.265000000
O    -4.477000000    -3.682000000     1.400000000
C    -5.536000000    -2.861000000     1.207000000
C    -5.630000000    -2.083000000     0.031000000
H    -4.852000000    -2.098000000    -0.728000000
C    -6.472000000    -2.681000000     2.254000000
H    -6.454000000    -3.176000000     3.221000000
C    -7.568000000    -1.882000000     1.988000000
H    -8.340000000    -1.690000000     2.729000000
C    -7.700000000    -1.155000000     0.799000000
H    -8.529000000    -0.522000000     0.490000000
C    -6.762000000    -1.330000000    -0.211000000
O    -6.891000000    -0.662000000    -1.376000000
C    -5.883000000     0.081000000    -1.973000000
C    -5.614000000    -0.087000000    -3.371000000
H    -6.051000000    -0.885000000    -3.966000000
C    -4.543000000     0.625000000    -3.914000000
O    -4.095000000     0.238000000    -5.181000000
C    -3.223000000     1.021000000    -5.942000000
C    -1.980000000     0.537000000    -6.232000000
H    -1.703000000    -0.472000000    -5.939000000
C    -3.593000000     2.337000000    -6.371000000
H    -4.601000000     2.693000000    -6.174000000
C    -2.677000000     3.033000000    -7.214000000
H    -2.806000000     4.020000000    -7.648000000
C    -1.388000000     2.451000000    -7.481000000
H    -0.627000000     2.928000000    -8.094000000
C    -1.071000000     1.261000000    -6.952000000
O     0.148000000     0.679000000    -7.191000000
C     1.145000000     0.666000000    -6.325000000
C     2.027000000    -0.416000000    -6.401000000
H     2.013000000    -1.159000000    -7.194000000
C     2.811000000    -0.680000000    -5.308000000
O     3.641000000    -1.713000000    -5.327000000
C     4.586000000    -2.008000000    -4.319000000
C     5.664000000    -1.169000000    -4.085000000
H     5.849000000    -0.287000000    -4.694000000
C     6.508000000    -1.425000000    -2.969000000
H     7.378000000    -0.782000000    -2.865000000
C     6.228000000    -2.413000000    -2.128000000
H     6.824000000    -2.644000000    -1.249000000
C     5.118000000    -3.269000000    -2.371000000
C     4.290000000    -3.075000000    -3.477000000
H     3.478000000    -3.756000000    -3.720000000
C    -0.957000000    -1.808000000     0.127000000
H    -1.068000000    -2.577000000     0.887000000
C    -0.229000000    -0.679000000     0.399000000
H     0.210000000    -0.603000000     1.391000000
C    -0.083000000     0.305000000    -0.573000000
H     0.432000000     1.229000000    -0.342000000
C    -0.684000000     0.180000000    -1.829000000
H    -0.545000000     0.966000000    -2.566000000
C    -1.429000000    -0.977000000    -2.096000000
H    -1.920000000    -1.027000000    -3.064000000
C    -1.604000000    -1.982000000    -1.096000000
C    -2.292000000    -3.309000000    -1.532000000
O    -3.046000000    -3.259000000    -2.498000000
O    -1.997000000    -4.404000000    -1.077000000
O     2.834000000    -7.406000000    -2.022000000
H     2.369000000    -8.234000000    -1.905000000
H     2.204000000    -6.839000000    -2.467000000
O    -2.276000000    -6.503000000    -2.725000000
H    -2.037000000    -5.727000000    -2.219000000
H    -1.798000000    -6.408000000    -3.549000000
O    -5.813000000    -7.382000000     1.081000000
H    -6.248000000    -6.586000000     0.776000000
H    -5.513000000    -7.813000000     0.281000000
O    -4.826000000    -3.290000000    -4.363000000
H    -4.099000000    -3.309000000    -3.740000000
H    -4.443000000    -2.938000000    -5.167000000
O    -1.980000000    -9.264000000    -2.643000000
H    -1.990000000    -8.306000000    -2.640000000
H    -2.348000000    -9.504000000    -3.494000000
O    -4.722000000    -5.567000000    -1.179000000
H    -4.106000000    -5.338000000    -0.482000000
H    -4.405000000    -5.088000000    -1.945000000
O    -2.172000000    -8.355000000     0.960000000
H    -1.652000000    -7.689000000     0.511000000
H    -3.015000000    -8.346000000     0.507000000
O    -8.893000000    -1.263000000    -3.432000000
H    -8.162000000    -1.874000000    -3.523000000
H    -9.419000000    -1.623000000    -2.718000000
O    -7.190000000    -6.374000000    -2.684000000
H    -6.628000000    -6.285000000    -1.914000000
H    -6.968000000    -7.232000000    -3.045000000
O    -4.362000000    -8.362000000    -0.931000000
H    -4.368000000    -7.444000000    -1.204000000
H    -3.825000000    -8.804000000    -1.589000000
O     1.201000000    -2.893000000    -1.523000000
H     0.699000000    -2.545000000    -0.786000000
H     1.123000000    -2.225000000    -2.203000000
O    -2.882000000    -2.810000000    -6.682000000
H    -2.327000000    -2.541000000    -7.414000000
H    -3.570000000    -3.339000000    -7.086000000
O    -7.488000000    -3.541000000    -3.913000000
H    -6.550000000    -3.351000000    -3.886000000
H    -7.555000000    -4.454000000    -3.633000000
O    -0.590000000    -5.921000000    -5.218000000
H    -0.792000000    -5.936000000    -6.153000000
H    -0.937000000    -5.083000000    -4.911000000
O    -7.476000000    -5.221000000     0.328000000
H    -8.340000000    -4.810000000     0.291000000
H    -6.863000000    -4.505000000     0.159000000
O    -0.592000000    -6.497000000    -0.186000000
H     0.013000000    -6.703000000    -0.898000000
H    -1.087000000    -5.741000000    -0.502000000
O    -1.358000000    -3.581000000    -4.470000000
H    -1.850000000    -3.114000000    -5.145000000
H    -1.951000000    -3.614000000    -3.720000000
O     0.459000000    -8.129000000    -3.989000000
H     0.098000000    -7.306000000    -4.316000000
H     0.845000000    -8.545000000    -4.760000000
O     1.542000000    -5.368000000    -2.862000000
H     1.658000000    -4.637000000    -2.255000000
H     1.057000000    -4.994000000    -3.598000000
