215
-1429.44259
C    -3.300000000    -2.165000000     1.951000000
H    -3.660000000    -1.391000000     1.278000000
C    -2.412000000    -1.703000000     2.961000000
C    -1.662000000    -2.673000000     3.683000000
H    -0.950000000    -2.394000000     4.455000000
C    -2.238000000    -0.173000000     3.253000000
O    -3.465000000     0.556000000     3.206000000
H    -1.667000000     0.261000000     2.420000000
O    -1.502000000     0.058000000     4.415000000
C    -0.399000000     0.891000000     4.311000000
C     0.825000000     0.230000000     4.239000000
H     0.868000000    -0.850000000     4.352000000
C     2.011000000     0.934000000     4.030000000
O     3.118000000     0.222000000     3.823000000
C     1.946000000     2.379000000     4.003000000
C     3.256000000     3.074000000     3.642000000
H     3.125000000     4.147000000     3.798000000
C     3.471000000     3.006000000     2.171000000
C     2.905000000     3.984000000     1.308000000
H     2.338000000     4.801000000     1.746000000
H     4.129000000     2.728000000     4.200000000
C     0.682000000     2.980000000     3.988000000
H     0.672000000     4.046000000     3.774000000
C    -0.509000000     2.224000000     4.119000000
C    -1.860000000     2.899000000     4.241000000
H    -1.648000000     3.902000000     4.617000000
H    -2.514000000     2.367000000     4.934000000
C    -2.682000000     2.858000000     2.966000000
C    -2.408000000     3.896000000     2.076000000
H    -1.640000000     4.631000000     2.305000000
C    -3.455000000     1.783000000     2.591000000
C    -4.188000000     1.871000000     1.385000000
H    -4.778000000     1.037000000     1.014000000
C    -3.890000000     2.886000000     0.495000000
O    -4.451000000     2.872000000    -0.723000000
C    -3.577000000     2.354000000    -1.752000000
C    -4.300000000     1.304000000    -2.539000000
C    -3.888000000     1.044000000    -3.806000000
H    -3.030000000     1.586000000    -4.196000000
C    -5.272000000     0.590000000    -1.975000000
H    -5.750000000     0.864000000    -1.038000000
O    -2.975000000     3.464000000    -2.524000000
H    -2.736000000     1.797000000    -1.313000000
C    -2.991000000     3.904000000     0.791000000
C    -2.635000000     5.096000000    -0.097000000
H    -2.480000000     6.014000000     0.473000000
H    -3.552000000     5.405000000    -0.603000000
C    -1.535000000     4.731000000    -1.057000000
C    -0.306000000     5.029000000    -0.656000000
H    -0.169000000     5.511000000     0.309000000
C    -1.753000000     3.953000000    -2.167000000
C    -0.677000000     3.462000000    -2.973000000
H    -0.785000000     2.895000000    -3.894000000
C     0.577000000     3.801000000    -2.553000000
O     1.684000000     3.203000000    -3.233000000
C     2.401000000     2.162000000    -2.581000000
C     2.620000000     0.984000000    -3.490000000
C     1.438000000     0.405000000    -4.066000000
H     0.430000000     0.806000000    -3.993000000
C     3.847000000     0.320000000    -3.469000000
H     4.632000000     0.800000000    -2.890000000
O     3.598000000     2.687000000    -1.984000000
H     1.742000000     1.782000000    -1.786000000
C     0.755000000     4.561000000    -1.381000000
C     2.152000000     4.903000000    -0.814000000
H     2.107000000     5.765000000    -0.145000000
H     2.847000000     5.207000000    -1.599000000
C     2.897000000     3.830000000    -0.068000000
C     3.609000000     2.820000000    -0.636000000
C     4.420000000     2.003000000     0.162000000
H     5.082000000     1.271000000    -0.295000000
C     4.281000000     2.042000000     1.531000000
O     4.632000000     0.939000000     2.196000000
C     3.612000000     0.006000000     2.471000000
H     2.782000000     0.184000000     1.771000000
C     4.117000000    -1.403000000     2.340000000
C     3.490000000    -2.409000000     3.092000000
H     2.812000000    -2.141000000     3.899000000
C     4.965000000    -1.728000000     1.249000000
H     5.328000000    -0.943000000     0.591000000
C     5.206000000    -3.093000000     1.005000000
O     5.956000000    -3.539000000    -0.034000000
C     4.604000000    -4.036000000     1.808000000
H     4.900000000    -5.072000000     1.664000000
C     3.719000000    -3.709000000     2.810000000
O     3.169000000    -4.759000000     3.520000000
C     2.173000000    -4.735000000     4.384000000
C     0.911000000    -4.933000000     3.933000000
H     0.751000000    -5.129000000     2.876000000
C     2.311000000    -4.798000000     5.739000000
H     3.285000000    -4.683000000     6.209000000
C     1.304000000    -5.036000000     6.643000000
H     1.510000000    -5.230000000     7.693000000
C     0.028000000    -5.270000000     6.180000000
H    -0.797000000    -5.452000000     6.864000000
C    -0.180000000    -5.022000000     4.815000000
O    -1.430000000    -5.077000000     4.278000000
C    -1.888000000    -4.061000000     3.394000000
C    -2.765000000    -4.419000000     2.376000000
H    -2.976000000    -5.473000000     2.215000000
C    -3.546000000    -3.482000000     1.655000000
O    -4.397000000    -3.924000000     0.636000000
C    -5.609000000    -3.372000000     0.417000000
C    -5.743000000    -2.710000000    -0.826000000
H    -4.822000000    -2.519000000    -1.371000000
C    -6.696000000    -3.482000000     1.318000000
H    -6.703000000    -4.123000000     2.196000000
C    -7.894000000    -2.807000000     0.994000000
H    -8.782000000    -2.774000000     1.620000000
C    -8.038000000    -2.041000000    -0.203000000
H    -8.928000000    -1.432000000    -0.343000000
C    -6.920000000    -1.947000000    -1.048000000
O    -7.024000000    -1.080000000    -2.166000000
C    -5.984000000    -0.389000000    -2.704000000
C    -5.541000000    -0.634000000    -4.041000000
H    -6.080000000    -1.379000000    -4.621000000
C    -4.459000000     0.094000000    -4.582000000
O    -4.085000000    -0.053000000    -5.868000000
C    -2.785000000     0.015000000    -6.308000000
C    -1.804000000    -0.818000000    -5.821000000
H    -2.043000000    -1.618000000    -5.125000000
C    -2.447000000     1.017000000    -7.210000000
H    -3.187000000     1.759000000    -7.499000000
C    -1.163000000     1.044000000    -7.769000000
H    -0.946000000     1.781000000    -8.538000000
C    -0.160000000     0.284000000    -7.211000000
H     0.875000000     0.424000000    -7.513000000
C    -0.464000000    -0.566000000    -6.187000000
O     0.546000000    -1.239000000    -5.605000000
C     1.553000000    -0.687000000    -4.855000000
C     2.819000000    -1.336000000    -5.034000000
H     2.915000000    -2.332000000    -5.459000000
C     3.904000000    -0.843000000    -4.272000000
O     5.090000000    -1.596000000    -4.346000000
C     5.922000000    -1.801000000    -3.288000000
C     7.243000000    -1.318000000    -3.357000000
H     7.670000000    -0.926000000    -4.277000000
C     8.121000000    -1.740000000    -2.364000000
H     9.171000000    -1.473000000    -2.453000000
C     7.577000000    -2.409000000    -1.252000000
H     8.245000000    -2.609000000    -0.418000000
C     6.322000000    -2.884000000    -1.143000000
C     5.468000000    -2.557000000    -2.172000000
H     4.473000000    -2.988000000    -2.253000000
C     0.465000000    -2.373000000    -0.101000000
H     0.757000000    -3.362000000     0.242000000
C     0.613000000    -1.290000000     0.825000000
H     1.073000000    -1.402000000     1.804000000
C    -0.039000000    -0.069000000     0.485000000
H    -0.020000000     0.733000000     1.096000000
C    -0.597000000     0.101000000    -0.739000000
H    -1.017000000     1.059000000    -1.035000000
C    -0.677000000    -0.936000000    -1.685000000
H    -1.211000000    -0.785000000    -2.620000000
C    -0.180000000    -2.183000000    -1.358000000
C    -0.239000000    -3.358000000    -2.280000000
O    -0.940000000    -3.302000000    -3.255000000
O     0.542000000    -4.331000000    -2.254000000
O    -1.123000000    -6.415000000    -2.939000000
H    -1.841000000    -6.298000000    -2.317000000
H    -0.780000000    -5.533000000    -3.078000000
O     0.248000000    -4.110000000    -5.439000000
H     0.198000000    -3.326000000    -5.986000000
H    -0.061000000    -3.822000000    -4.580000000
O     3.130000000    -8.995000000    -1.043000000
H     3.734000000    -8.356000000    -1.422000000
H     2.260000000    -8.655000000    -1.253000000
O    -3.654000000    -3.768000000    -3.271000000
H    -2.723000000    -3.611000000    -3.110000000
H    -3.779000000    -3.537000000    -4.192000000
O    -3.385000000    -5.700000000    -1.272000000
H    -4.171000000    -5.616000000    -0.732000000
H    -3.553000000    -5.138000000    -2.028000000
O     3.341000000    -1.294000000    -8.084000000
H     3.368000000    -1.261000000    -9.041000000
H     2.640000000    -1.916000000    -7.886000000
O     2.053000000    -3.936000000    -8.368000000
H     1.240000000    -3.841000000    -8.863000000
H     2.357000000    -4.820000000    -8.574000000
O    -4.449000000    -3.005000000    -6.051000000
H    -4.209000000    -2.174000000    -6.459000000
H    -5.397000000    -3.064000000    -6.167000000
O    -4.123000000    -5.017000000    -8.144000000
H    -4.013000000    -4.281000000    -7.542000000
H    -3.345000000    -5.557000000    -8.007000000
O     1.647000000    -8.350000000    -5.271000000
H     2.202000000    -8.986000000    -4.820000000
H     1.345000000    -8.808000000    -6.055000000
O     0.007000000    -8.016000000    -0.644000000
H     0.413000000    -7.190000000    -0.382000000
H    -0.209000000    -7.893000000    -1.569000000
O     4.194000000    -6.593000000    -5.778000000
H     3.653000000    -6.767000000    -6.548000000
H     3.628000000    -6.083000000    -5.198000000
O    -1.526000000    -8.233000000     1.432000000
H    -0.948000000    -8.492000000     2.150000000
H    -0.950000000    -8.174000000     0.670000000
O    -0.229000000    -6.481000000    -6.292000000
H     0.025000000    -5.566000000    -6.170000000
H     0.342000000    -6.969000000    -5.698000000
O     1.622000000    -5.758000000    -0.314000000
H     2.557000000    -5.553000000    -0.313000000
H     1.253000000    -5.191000000    -0.991000000
O     2.557000000    -5.130000000    -3.661000000
H     2.642000000    -4.196000000    -3.852000000
H     1.794000000    -5.189000000    -3.086000000
O    -3.701000000    -8.638000000    -0.596000000
H    -3.286000000    -9.445000000    -0.291000000
H    -3.009000000    -7.979000000    -0.546000000
O    -2.421000000    -8.211000000    -4.842000000
H    -2.094000000    -7.769000000    -4.059000000
H    -2.177000000    -7.631000000    -5.564000000
O     4.150000000    -6.112000000    -1.950000000
H     4.927000000    -5.893000000    -2.464000000
H     3.414000000    -5.871000000    -2.513000000
