215
-1465.93547
C    -3.391000000    -2.481000000     3.066000000
H    -3.849000000    -1.740000000     2.415000000
C    -2.253000000    -2.150000000     3.794000000
C    -1.554000000    -3.143000000     4.542000000
H    -0.684000000    -2.847000000     5.121000000
C    -1.794000000    -0.626000000     3.804000000
O    -2.929000000     0.337000000     3.970000000
H    -1.187000000    -0.403000000     2.915000000
O    -0.926000000    -0.357000000     4.976000000
C     0.215000000     0.335000000     4.708000000
C     1.382000000    -0.304000000     4.329000000
H     1.232000000    -1.379000000     4.257000000
C     2.438000000     0.378000000     3.767000000
O     3.479000000    -0.360000000     3.337000000
C     2.374000000     1.770000000     3.671000000
C     3.612000000     2.533000000     3.222000000
H     3.702000000     3.567000000     3.562000000
C     3.666000000     2.745000000     1.736000000
C     3.082000000     3.873000000     1.120000000
H     2.566000000     4.612000000     1.728000000
H     4.521000000     2.084000000     3.626000000
C     1.252000000     2.403000000     4.193000000
H     1.167000000     3.487000000     4.206000000
C     0.170000000     1.721000000     4.718000000
C    -1.185000000     2.438000000     5.082000000
H    -1.147000000     3.426000000     5.546000000
H    -1.686000000     1.741000000     5.758000000
C    -1.965000000     2.527000000     3.759000000
C    -1.870000000     3.723000000     2.971000000
H    -1.186000000     4.555000000     3.121000000
C    -2.769000000     1.505000000     3.308000000
C    -3.549000000     1.650000000     2.215000000
H    -4.140000000     0.811000000     1.856000000
C    -3.412000000     2.754000000     1.383000000
O    -4.188000000     2.760000000     0.267000000
C    -3.491000000     2.419000000    -0.928000000
C    -4.216000000     1.494000000    -1.931000000
C    -3.937000000     1.449000000    -3.352000000
H    -3.375000000     2.208000000    -3.889000000
C    -4.866000000     0.373000000    -1.355000000
H    -5.019000000     0.325000000    -0.280000000
O    -3.230000000     3.680000000    -1.616000000
H    -2.561000000     1.869000000    -0.720000000
C    -2.610000000     3.825000000     1.761000000
C    -2.414000000     5.063000000     0.914000000
H    -2.082000000     5.888000000     1.548000000
H    -3.349000000     5.442000000     0.497000000
C    -1.453000000     4.791000000    -0.272000000
C    -0.178000000     5.239000000    -0.190000000
H     0.104000000     5.874000000     0.646000000
C    -1.859000000     4.047000000    -1.456000000
C    -0.910000000     3.777000000    -2.475000000
H    -1.219000000     3.120000000    -3.284000000
C     0.412000000     3.989000000    -2.219000000
O     1.332000000     3.600000000    -3.192000000
C     2.219000000     2.445000000    -2.841000000
C     2.202000000     1.390000000    -3.916000000
C     1.305000000     1.498000000    -4.913000000
H     0.519000000     2.249000000    -4.921000000
C     3.153000000     0.258000000    -3.943000000
H     3.902000000     0.079000000    -3.176000000
O     3.500000000     2.825000000    -2.384000000
H     1.820000000     1.929000000    -1.955000000
C     0.803000000     4.739000000    -1.082000000
C     2.227000000     5.141000000    -0.889000000
H     2.224000000     5.864000000    -0.070000000
H     2.699000000     5.450000000    -1.824000000
C     3.096000000     3.968000000    -0.257000000
C     3.646000000     2.947000000    -1.044000000
C     4.304000000     1.916000000    -0.410000000
H     4.767000000     1.133000000    -1.006000000
C     4.345000000     1.832000000     0.990000000
O     4.789000000     0.634000000     1.573000000
C     3.722000000    -0.342000000     1.932000000
H     2.786000000    -0.054000000     1.430000000
C     3.993000000    -1.815000000     1.483000000
C     3.290000000    -2.893000000     2.069000000
H     2.653000000    -2.762000000     2.940000000
C     4.782000000    -2.136000000     0.365000000
H     5.236000000    -1.296000000    -0.153000000
C     4.962000000    -3.452000000    -0.050000000
O     5.743000000    -3.767000000    -1.148000000
C     4.329000000    -4.476000000     0.591000000
H     4.574000000    -5.507000000     0.348000000
C     3.517000000    -4.227000000     1.679000000
O     2.556000000    -5.195000000     1.971000000
C     2.022000000    -5.479000000     3.213000000
C     0.651000000    -5.294000000     3.466000000
H     0.008000000    -4.819000000     2.730000000
C     2.772000000    -6.255000000     4.121000000
H     3.796000000    -6.507000000     3.856000000
C     2.138000000    -6.743000000     5.315000000
H     2.767000000    -7.271000000     6.026000000
C     0.856000000    -6.324000000     5.601000000
H     0.468000000    -6.518000000     6.597000000
C     0.123000000    -5.577000000     4.735000000
O    -1.223000000    -5.390000000     5.065000000
C    -2.012000000    -4.437000000     4.477000000
C    -3.170000000    -4.751000000     3.792000000
H    -3.345000000    -5.823000000     3.751000000
C    -3.874000000    -3.769000000     3.004000000
O    -4.972000000    -4.132000000     2.321000000
C    -5.778000000    -3.100000000     1.710000000
C    -5.410000000    -2.774000000     0.430000000
H    -4.631000000    -3.244000000    -0.164000000
C    -6.883000000    -2.550000000     2.353000000
H    -7.073000000    -2.780000000     3.398000000
C    -7.620000000    -1.622000000     1.741000000
H    -8.271000000    -0.953000000     2.298000000
C    -7.330000000    -1.265000000     0.460000000
H    -8.047000000    -0.577000000     0.020000000
C    -6.211000000    -1.809000000    -0.195000000
O    -6.127000000    -1.627000000    -1.566000000
C    -5.365000000    -0.656000000    -2.148000000
C    -5.186000000    -0.652000000    -3.522000000
H    -5.590000000    -1.461000000    -4.125000000
C    -4.376000000     0.301000000    -4.066000000
O    -4.159000000     0.223000000    -5.453000000
C    -3.264000000     0.954000000    -6.108000000
C    -1.936000000     0.492000000    -5.982000000
H    -1.693000000    -0.350000000    -5.339000000
C    -3.600000000     2.098000000    -6.857000000
H    -4.656000000     2.286000000    -7.028000000
C    -2.572000000     2.847000000    -7.471000000
H    -2.833000000     3.782000000    -7.961000000
C    -1.296000000     2.390000000    -7.427000000
H    -0.519000000     2.941000000    -7.951000000
C    -0.961000000     1.200000000    -6.723000000
O     0.294000000     0.714000000    -6.916000000
C     1.256000000     0.589000000    -5.928000000
C     2.268000000    -0.337000000    -6.109000000
H     2.185000000    -0.953000000    -7.000000000
C     3.150000000    -0.583000000    -5.060000000
O     3.949000000    -1.708000000    -5.139000000
C     5.056000000    -1.894000000    -4.320000000
C     6.358000000    -1.617000000    -4.759000000
H     6.445000000    -1.239000000    -5.775000000
C     7.439000000    -1.814000000    -3.842000000
H     8.437000000    -1.464000000    -4.092000000
C     7.189000000    -2.541000000    -2.676000000
H     8.018000000    -2.763000000    -2.010000000
C     5.863000000    -2.919000000    -2.311000000
C     4.784000000    -2.561000000    -3.144000000
H     3.738000000    -2.762000000    -2.928000000
C    -0.504000000    -2.326000000     0.335000000
H    -0.559000000    -3.364000000     0.650000000
C     0.136000000    -1.417000000     1.183000000
H     0.458000000    -1.806000000     2.146000000
C     0.172000000    -0.041000000     0.846000000
H     0.592000000     0.675000000     1.469000000
C    -0.444000000     0.405000000    -0.330000000
H    -0.437000000     1.471000000    -0.545000000
C    -0.966000000    -0.534000000    -1.175000000
H    -1.308000000    -0.117000000    -2.118000000
C    -1.064000000    -1.917000000    -0.823000000
C    -1.650000000    -2.842000000    -1.813000000
O    -1.779000000    -2.547000000    -2.989000000
O    -1.962000000    -4.025000000    -1.503000000
O    -0.695000000    -5.544000000    -3.595000000
H    -0.973000000    -4.890000000    -2.954000000
H     0.138000000    -5.213000000    -3.929000000
O    -1.418000000    -2.804000000    -5.872000000
H    -2.317000000    -3.133000000    -5.899000000
H    -1.270000000    -2.587000000    -4.952000000
O     0.375000000    -8.613000000     0.388000000
H    -0.073000000    -8.028000000    -0.224000000
H    -0.331000000    -9.106000000     0.806000000
O    -3.682000000    -3.915000000    -4.463000000
H    -3.060000000    -3.620000000    -3.798000000
H    -4.542000000    -3.724000000    -4.089000000
O     2.054000000    -6.922000000    -2.080000000
H     1.584000000    -6.106000000    -1.907000000
H     1.824000000    -7.492000000    -1.346000000
O    -4.081000000    -5.642000000    -1.508000000
H    -3.374000000    -5.018000000    -1.673000000
H    -3.634000000    -6.456000000    -1.277000000
O    -3.835000000    -6.202000000    -5.685000000
H    -3.682000000    -5.458000000    -5.103000000
H    -3.717000000    -5.846000000    -6.565000000
O    -1.665000000    -7.519000000     2.305000000
H    -0.981000000    -8.021000000     2.749000000
H    -1.188000000    -6.919000000     1.732000000
O    -6.470000000    -4.716000000    -2.614000000
H    -5.620000000    -5.107000000    -2.411000000
H    -7.066000000    -5.088000000    -1.964000000
O    -2.960000000    -8.039000000    -0.675000000
H    -3.420000000    -8.494000000     0.030000000
H    -2.143000000    -7.740000000    -0.276000000
O     2.232000000    -1.089000000    -1.166000000
H     1.997000000    -1.371000000    -2.050000000
H     1.408000000    -0.784000000    -0.785000000
O    -0.779000000    -5.186000000    -7.152000000
H    -1.676000000    -5.360000000    -7.439000000
H    -0.806000000    -4.292000000    -6.811000000
O     1.529000000    -4.258000000    -5.580000000
H     2.181000000    -4.039000000    -6.247000000
H     0.860000000    -4.754000000    -6.053000000
O    -5.989000000    -6.847000000     0.187000000
H    -5.193000000    -6.371000000    -0.052000000
H    -5.970000000    -7.634000000    -0.357000000
O    -0.818000000    -6.021000000    -0.041000000
H     0.007000000    -5.547000000    -0.147000000
H    -1.441000000    -5.544000000    -0.590000000
O     0.950000000    -2.783000000    -3.465000000
H     1.146000000    -3.263000000    -4.270000000
H     0.068000000    -2.439000000    -3.601000000
O     2.211000000    -7.155000000    -5.124000000
H     2.945000000    -7.699000000    -4.836000000
H     2.268000000    -6.370000000    -4.579000000
O    -1.706000000    -7.722000000    -4.639000000
H    -1.438000000    -6.939000000    -4.158000000
H    -2.511000000    -7.464000000    -5.088000000
O     1.594000000    -4.161000000    -0.986000000
H     1.452000000    -3.575000000    -1.729000000
H     2.223000000    -3.698000000    -0.432000000
