215
-1431.40504
C    -3.664000000    -1.821000000     3.293000000
H    -4.129000000    -1.005000000     2.746000000
C    -2.528000000    -1.482000000     4.017000000
C    -1.882000000    -2.513000000     4.703000000
H    -0.932000000    -2.348000000     5.204000000
C    -1.900000000    -0.116000000     3.790000000
O    -2.911000000     0.890000000     3.854000000
H    -1.600000000    -0.126000000     2.732000000
O    -0.800000000     0.133000000     4.728000000
C     0.378000000     0.725000000     4.322000000
C     1.483000000    -0.081000000     4.105000000
H     1.390000000    -1.148000000     4.288000000
C     2.660000000     0.530000000     3.668000000
O     3.724000000    -0.338000000     3.397000000
C     2.772000000     1.919000000     3.486000000
C     4.033000000     2.486000000     2.928000000
H     4.238000000     3.450000000     3.398000000
C     4.113000000     2.460000000     1.472000000
C     3.632000000     3.603000000     0.739000000
H     3.283000000     4.444000000     1.332000000
H     4.902000000     1.936000000     3.296000000
C     1.646000000     2.724000000     3.710000000
H     1.571000000     3.769000000     3.423000000
C     0.454000000     2.111000000     4.235000000
C    -0.820000000     2.876000000     4.589000000
H    -0.527000000     3.836000000     5.018000000
H    -1.145000000     2.396000000     5.515000000
C    -1.761000000     2.962000000     3.394000000
C    -1.563000000     4.023000000     2.558000000
H    -0.688000000     4.657000000     2.679000000
C    -2.769000000     2.060000000     3.099000000
C    -3.523000000     2.157000000     1.983000000
H    -4.224000000     1.353000000     1.773000000
C    -3.221000000     3.158000000     1.066000000
O    -3.918000000     2.999000000    -0.121000000
C    -3.137000000     2.507000000    -1.191000000
C    -3.897000000     1.455000000    -1.989000000
C    -3.623000000     1.185000000    -3.353000000
H    -2.738000000     1.627000000    -3.806000000
C    -4.972000000     0.667000000    -1.450000000
H    -5.322000000     0.800000000    -0.429000000
O    -2.752000000     3.646000000    -2.054000000
H    -2.198000000     2.032000000    -0.870000000
C    -2.279000000     4.124000000     1.321000000
C    -1.893000000     5.191000000     0.317000000
H    -1.385000000     6.054000000     0.753000000
H    -2.807000000     5.561000000    -0.153000000
C    -0.942000000     4.712000000    -0.786000000
C     0.434000000     4.934000000    -0.599000000
H     0.797000000     5.427000000     0.299000000
C    -1.403000000     3.939000000    -1.877000000
C    -0.492000000     3.493000000    -2.791000000
H    -0.892000000     2.944000000    -3.640000000
C     0.872000000     3.794000000    -2.623000000
O     1.724000000     3.232000000    -3.506000000
C     2.340000000     1.928000000    -3.103000000
C     2.220000000     0.842000000    -4.265000000
C     1.395000000     0.999000000    -5.373000000
H     0.800000000     1.909000000    -5.354000000
C     2.804000000    -0.374000000    -4.083000000
H     3.544000000    -0.420000000    -3.288000000
O     3.682000000     2.063000000    -2.646000000
H     1.669000000     1.581000000    -2.304000000
C     1.397000000     4.494000000    -1.561000000
C     2.898000000     4.714000000    -1.396000000
H     2.915000000     5.640000000    -0.816000000
H     3.309000000     4.950000000    -2.379000000
C     3.623000000     3.602000000    -0.658000000
C     4.013000000     2.395000000    -1.322000000
C     4.488000000     1.308000000    -0.593000000
H     4.778000000     0.400000000    -1.115000000
C     4.616000000     1.374000000     0.817000000
O     4.911000000     0.164000000     1.430000000
C     3.755000000    -0.605000000     1.968000000
H     2.831000000    -0.320000000     1.444000000
C     4.011000000    -2.157000000     1.786000000
C     3.475000000    -3.032000000     2.717000000
H     3.024000000    -2.699000000     3.649000000
C     4.553000000    -2.669000000     0.587000000
H     4.838000000    -1.969000000    -0.195000000
C     4.577000000    -4.055000000     0.300000000
O     5.247000000    -4.501000000    -0.747000000
C     4.025000000    -4.872000000     1.263000000
H     4.160000000    -5.942000000     1.130000000
C     3.433000000    -4.405000000     2.461000000
O     2.945000000    -5.343000000     3.313000000
C     2.032000000    -5.021000000     4.334000000
C     0.680000000    -5.191000000     4.158000000
H     0.338000000    -5.396000000     3.147000000
C     2.540000000    -4.705000000     5.597000000
H     3.615000000    -4.558000000     5.671000000
C     1.677000000    -4.587000000     6.666000000
H     2.050000000    -4.498000000     7.682000000
C     0.299000000    -4.728000000     6.451000000
H    -0.336000000    -4.655000000     7.330000000
C    -0.215000000    -5.030000000     5.165000000
O    -1.560000000    -4.986000000     4.872000000
C    -2.283000000    -3.845000000     4.476000000
C    -3.451000000    -4.155000000     3.756000000
H    -3.742000000    -5.202000000     3.765000000
C    -4.187000000    -3.159000000     3.197000000
O    -5.282000000    -3.401000000     2.453000000
C    -6.040000000    -2.502000000     1.777000000
C    -6.016000000    -2.373000000     0.374000000
H    -5.312000000    -3.006000000    -0.161000000
C    -7.021000000    -1.790000000     2.446000000
H    -7.078000000    -1.778000000     3.531000000
C    -7.752000000    -0.765000000     1.854000000
H    -8.438000000    -0.259000000     2.528000000
C    -7.665000000    -0.632000000     0.456000000
H    -8.263000000     0.073000000    -0.115000000
C    -6.773000000    -1.379000000    -0.327000000
O    -6.677000000    -1.064000000    -1.672000000
C    -5.718000000    -0.244000000    -2.255000000
C    -5.427000000    -0.372000000    -3.580000000
H    -6.024000000    -0.971000000    -4.263000000
C    -4.337000000     0.294000000    -4.102000000
O    -4.041000000    -0.003000000    -5.436000000
C    -3.097000000     0.654000000    -6.175000000
C    -1.873000000     0.030000000    -6.343000000
H    -1.725000000    -0.989000000    -5.995000000
C    -3.283000000     1.962000000    -6.566000000
H    -4.143000000     2.607000000    -6.405000000
C    -2.261000000     2.613000000    -7.288000000
H    -2.310000000     3.624000000    -7.685000000
C    -1.054000000     1.919000000    -7.517000000
H    -0.232000000     2.499000000    -7.928000000
C    -0.915000000     0.633000000    -7.004000000
O     0.265000000     0.024000000    -7.271000000
C     1.127000000    -0.075000000    -6.231000000
C     1.738000000    -1.292000000    -5.998000000
H     1.543000000    -2.118000000    -6.678000000
C     2.556000000    -1.432000000    -4.878000000
O     3.137000000    -2.683000000    -4.632000000
C     4.226000000    -2.903000000    -3.865000000
C     5.435000000    -2.639000000    -4.372000000
H     5.502000000    -2.349000000    -5.417000000
C     6.589000000    -3.153000000    -3.731000000
H     7.525000000    -3.133000000    -4.283000000
C     6.514000000    -3.706000000    -2.493000000
H     7.390000000    -4.167000000    -2.044000000
C     5.278000000    -3.853000000    -1.863000000
C     4.162000000    -3.441000000    -2.559000000
H     3.202000000    -3.754000000    -2.157000000
C     0.382000000    -2.201000000    -0.336000000
H     0.578000000    -3.109000000     0.229000000
C     0.420000000    -0.960000000     0.274000000
H     0.687000000    -0.887000000     1.325000000
C     0.049000000     0.105000000    -0.413000000
H     0.153000000     1.114000000     0.005000000
C    -0.303000000    -0.013000000    -1.764000000
H    -0.743000000     0.847000000    -2.262000000
C    -0.293000000    -1.231000000    -2.400000000
H    -0.651000000    -1.326000000    -3.422000000
C     0.026000000    -2.341000000    -1.641000000
C    -0.143000000    -3.692000000    -2.320000000
O    -0.579000000    -3.801000000    -3.437000000
O    -0.089000000    -4.744000000    -1.688000000
O    -1.764000000    -6.913000000    -2.606000000
H    -2.535000000    -6.715000000    -2.075000000
H    -1.154000000    -6.200000000    -2.418000000
O     0.386000000    -4.499000000    -5.752000000
H     1.278000000    -4.784000000    -5.553000000
H     0.048000000    -4.172000000    -4.918000000
O    -3.630000000    -8.053000000    -0.228000000
H    -3.835000000    -8.618000000     0.516000000
H    -3.347000000    -7.228000000     0.168000000
O    -2.778000000    -3.123000000    -4.764000000
H    -1.935000000    -3.537000000    -4.576000000
H    -3.104000000    -2.845000000    -3.908000000
O    -4.805000000    -5.258000000    -3.631000000
H    -4.151000000    -4.980000000    -2.990000000
H    -4.590000000    -4.763000000    -4.422000000
O    -0.951000000    -6.909000000    -6.202000000
H    -1.559000000    -6.241000000    -6.518000000
H    -0.353000000    -6.435000000    -5.625000000
O    -0.301000000    -9.649000000    -3.436000000
H    -0.125000000    -9.063000000    -2.700000000
H    -0.325000000   -10.523000000    -3.045000000
O    -0.190000000    -8.549000000    -0.975000000
H    -0.829000000    -8.062000000    -1.495000000
H    -0.689000000    -8.872000000    -0.225000000
O    -3.859000000    -2.030000000    -7.896000000
H    -4.801000000    -2.029000000    -7.726000000
H    -3.463000000    -2.250000000    -7.053000000
O     4.392000000    -6.296000000    -5.896000000
H     3.905000000    -6.059000000    -6.686000000
H     3.912000000    -5.874000000    -5.184000000
O     0.308000000    -6.122000000    -8.708000000
H    -0.364000000    -6.454000000    -9.304000000
H     0.041000000    -6.437000000    -7.845000000
O    -0.444000000    -3.116000000    -8.068000000
H    -0.056000000    -2.241000000    -8.074000000
H    -0.096000000    -3.527000000    -7.277000000
O     0.533000000    -6.150000000     0.815000000
H     1.113000000    -6.879000000     0.592000000
H     0.321000000    -5.747000000    -0.027000000
O     1.670000000    -5.789000000    -3.546000000
H     2.055000000    -6.350000000    -2.873000000
H     1.141000000    -5.158000000    -3.058000000
O    -2.927000000    -4.352000000    -1.991000000
H    -2.680000000    -4.267000000    -1.070000000
H    -2.124000000    -4.158000000    -2.474000000
O    -2.795000000    -8.179000000    -4.943000000
H    -2.517000000    -7.979000000    -4.049000000
H    -2.122000000    -7.785000000    -5.498000000
O     2.431000000    -7.157000000    -1.300000000
H     1.761000000    -7.700000000    -1.715000000
H     3.173000000    -7.748000000    -1.172000000
O    -3.399000000    -5.206000000    -6.678000000
H    -2.767000000    -4.542000000    -6.402000000
H    -3.489000000    -5.074000000    -7.622000000
O    -2.311000000    -5.600000000     0.738000000
H    -2.477000000    -5.437000000     1.666000000
H    -1.402000000    -5.899000000     0.706000000
