215
-1438.91326
C    -4.368000000    -0.348000000     3.154000000
H    -4.839000000     0.459000000     2.598000000
C    -3.074000000    -0.175000000     3.764000000
C    -2.433000000    -1.308000000     4.361000000
H    -1.422000000    -1.151000000     4.727000000
C    -2.338000000     1.133000000     3.614000000
O    -3.133000000     2.284000000     3.347000000
H    -1.848000000     0.963000000     2.644000000
O    -1.417000000     1.430000000     4.637000000
C    -0.142000000     1.719000000     4.225000000
C     0.804000000     0.647000000     4.184000000
H     0.412000000    -0.360000000     4.303000000
C     2.042000000     0.922000000     3.714000000
O     2.906000000    -0.084000000     3.635000000
C     2.480000000     2.255000000     3.446000000
C     3.827000000     2.554000000     2.835000000
H     4.147000000     3.586000000     2.993000000
C     4.048000000     2.273000000     1.347000000
C     3.834000000     3.330000000     0.416000000
H     3.493000000     4.279000000     0.821000000
H     4.574000000     2.011000000     3.416000000
C     1.536000000     3.275000000     3.507000000
H     1.826000000     4.245000000     3.109000000
C     0.212000000     3.022000000     3.829000000
C    -0.820000000     4.068000000     3.754000000
H    -0.407000000     5.071000000     3.882000000
H    -1.546000000     3.980000000     4.565000000
C    -1.627000000     3.909000000     2.461000000
C    -1.117000000     4.563000000     1.301000000
H    -0.261000000     5.229000000     1.367000000
C    -2.784000000     3.171000000     2.368000000
C    -3.508000000     3.093000000     1.177000000
H    -4.338000000     2.398000000     1.078000000
C    -2.942000000     3.668000000     0.003000000
O    -3.459000000     3.286000000    -1.210000000
C    -2.656000000     2.478000000    -2.063000000
C    -3.404000000     1.287000000    -2.661000000
C    -3.145000000     0.756000000    -3.894000000
H    -2.387000000     1.218000000    -4.521000000
C    -4.367000000     0.647000000    -1.908000000
H    -4.557000000     1.013000000    -0.902000000
O    -2.002000000     3.077000000    -3.137000000
H    -1.857000000     2.009000000    -1.471000000
C    -1.810000000     4.507000000     0.065000000
C    -1.390000000     5.212000000    -1.265000000
H    -0.971000000     6.148000000    -0.890000000
H    -2.232000000     5.419000000    -1.929000000
C    -0.311000000     4.494000000    -2.051000000
C     1.075000000     4.717000000    -1.844000000
H     1.398000000     5.509000000    -1.172000000
C    -0.721000000     3.492000000    -2.977000000
C     0.271000000     2.872000000    -3.737000000
H     0.017000000     2.067000000    -4.422000000
C     1.649000000     3.011000000    -3.388000000
O     2.525000000     2.192000000    -4.054000000
C     2.880000000     1.034000000    -3.252000000
C     2.934000000    -0.273000000    -4.032000000
C     1.946000000    -0.599000000    -4.997000000
H     1.407000000     0.271000000    -5.362000000
C     3.752000000    -1.320000000    -3.585000000
H     4.544000000    -1.201000000    -2.850000000
O     4.165000000     1.362000000    -2.631000000
H     2.075000000     0.921000000    -2.511000000
C     2.039000000     3.981000000    -2.393000000
C     3.518000000     4.129000000    -1.977000000
H     3.744000000     5.116000000    -1.567000000
H     4.129000000     4.027000000    -2.876000000
C     3.993000000     3.082000000    -0.928000000
C     4.270000000     1.795000000    -1.382000000
C     4.367000000     0.742000000    -0.449000000
H     4.425000000    -0.277000000    -0.825000000
C     4.378000000     0.992000000     0.898000000
O     4.472000000    -0.096000000     1.726000000
C     3.289000000    -0.657000000     2.396000000
H     2.412000000    -0.606000000     1.735000000
C     3.308000000    -2.182000000     2.552000000
C     2.698000000    -2.801000000     3.676000000
H     2.267000000    -2.315000000     4.548000000
C     3.794000000    -2.951000000     1.488000000
H     4.261000000    -2.495000000     0.619000000
C     3.693000000    -4.365000000     1.547000000
O     4.293000000    -5.194000000     0.646000000
C     3.082000000    -4.951000000     2.632000000
H     2.961000000    -6.022000000     2.772000000
C     2.536000000    -4.198000000     3.632000000
O     1.895000000    -4.810000000     4.683000000
C     0.915000000    -4.275000000     5.418000000
C    -0.327000000    -4.103000000     4.775000000
H    -0.432000000    -4.333000000     3.717000000
C     1.124000000    -3.822000000     6.702000000
H     2.112000000    -3.985000000     7.127000000
C     0.147000000    -3.220000000     7.469000000
H     0.360000000    -2.740000000     8.421000000
C    -1.137000000    -3.185000000     6.871000000
H    -2.019000000    -2.693000000     7.274000000
C    -1.356000000    -3.648000000     5.541000000
O    -2.616000000    -3.660000000     5.082000000
C    -3.173000000    -2.488000000     4.550000000
C    -4.460000000    -2.601000000     4.021000000
H    -5.086000000    -3.490000000     4.017000000
C    -5.032000000    -1.524000000     3.411000000
O    -6.314000000    -1.716000000     3.063000000
C    -6.852000000    -1.281000000     1.846000000
C    -6.131000000    -1.452000000     0.681000000
H    -5.224000000    -2.051000000     0.721000000
C    -8.009000000    -0.572000000     1.857000000
H    -8.628000000    -0.501000000     2.747000000
C    -8.465000000    -0.010000000     0.655000000
H    -9.422000000     0.507000000     0.666000000
C    -7.736000000    -0.147000000    -0.483000000
H    -7.962000000     0.266000000    -1.463000000
C    -6.598000000    -0.855000000    -0.489000000
O    -5.960000000    -1.187000000    -1.683000000
C    -5.047000000    -0.420000000    -2.396000000
C    -4.737000000    -0.939000000    -3.670000000
H    -5.341000000    -1.755000000    -4.059000000
C    -3.834000000    -0.283000000    -4.425000000
O    -3.550000000    -0.817000000    -5.671000000
C    -2.455000000    -0.446000000    -6.386000000
C    -1.398000000    -1.366000000    -6.255000000
H    -1.531000000    -2.306000000    -5.724000000
C    -2.334000000     0.741000000    -7.144000000
H    -3.115000000     1.497000000    -7.131000000
C    -1.107000000     1.041000000    -7.737000000
H    -0.859000000     2.006000000    -8.173000000
C    -0.051000000     0.107000000    -7.609000000
H     0.922000000     0.320000000    -8.044000000
C    -0.168000000    -1.114000000    -6.906000000
O     0.912000000    -1.954000000    -6.580000000
C     1.824000000    -1.815000000    -5.570000000
C     2.688000000    -2.805000000    -5.155000000
H     2.694000000    -3.730000000    -5.726000000
C     3.572000000    -2.618000000    -4.070000000
O     4.501000000    -3.601000000    -3.871000000
C     5.081000000    -3.880000000    -2.698000000
C     6.445000000    -3.677000000    -2.594000000
H     7.034000000    -3.341000000    -3.443000000
C     7.114000000    -4.140000000    -1.438000000
H     8.197000000    -4.227000000    -1.396000000
C     6.399000000    -4.650000000    -0.375000000
H     6.929000000    -4.942000000     0.528000000
C     5.001000000    -4.756000000    -0.466000000
C     4.301000000    -4.422000000    -1.638000000
H     3.241000000    -4.631000000    -1.756000000
C    -0.238000000    -1.890000000     0.596000000
H    -0.160000000    -2.603000000     1.413000000
C    -0.179000000    -0.529000000     0.967000000
H    -0.057000000    -0.157000000     1.981000000
C    -0.179000000     0.412000000    -0.013000000
H    -0.128000000     1.509000000     0.235000000
C    -0.096000000    -0.013000000    -1.346000000
H    -0.204000000     0.784000000    -2.078000000
C    -0.212000000    -1.361000000    -1.758000000
H    -0.200000000    -1.662000000    -2.803000000
C    -0.242000000    -2.319000000    -0.764000000
C    -0.297000000    -3.744000000    -1.071000000
O     0.044000000    -4.155000000    -2.139000000
O    -0.776000000    -4.506000000    -0.223000000
O    -3.153000000    -7.041000000     1.126000000
H    -2.436000000    -6.676000000     1.644000000
H    -2.965000000    -6.767000000     0.228000000
O     0.079000000    -5.206000000    -4.479000000
H     0.958000000    -5.483000000    -4.738000000
H     0.198000000    -4.809000000    -3.616000000
O    -2.763000000    -3.548000000    -3.174000000
H    -1.834000000    -3.702000000    -3.346000000
H    -3.157000000    -3.467000000    -4.042000000
O    -4.999000000    -4.173000000    -1.245000000
H    -4.731000000    -3.993000000    -0.344000000
H    -4.357000000    -3.710000000    -1.782000000
O     2.120000000    -6.214000000    -5.952000000
H     2.955000000    -6.302000000    -6.412000000
H     1.464000000    -6.195000000    -6.649000000
O    -2.622000000    -5.975000000    -1.642000000
H    -2.909000000    -5.360000000    -2.317000000
H    -1.944000000    -5.502000000    -1.160000000
O    -0.874000000    -8.045000000    -3.205000000
H    -1.598000000    -7.632000000    -2.735000000
H    -0.096000000    -7.570000000    -2.913000000
O    -0.590000000    -9.838000000     0.668000000
H    -1.111000000   -10.259000000    -0.016000000
H    -0.912000000   -10.221000000     1.484000000
O     0.685000000    -8.857000000    -5.310000000
H     0.060000000    -8.747000000    -4.594000000
H     1.265000000    -8.098000000    -5.241000000
O     3.045000000    -7.315000000    -3.523000000
H     2.851000000    -6.931000000    -4.378000000
H     2.301000000    -7.065000000    -2.974000000
O    -6.282000000    -6.292000000    -2.363000000
H    -5.586000000    -6.756000000    -2.829000000
H    -5.837000000    -5.563000000    -1.932000000
O     1.360000000   -10.024000000    -1.182000000
H     0.838000000    -9.766000000    -0.423000000
H     1.918000000   -10.732000000    -0.860000000
O    -1.840000000    -5.975000000    -6.209000000
H    -1.274000000    -5.570000000    -5.552000000
H    -1.238000000    -6.294000000    -6.880000000
O    -0.757000000    -6.342000000     2.108000000
H     0.013000000    -6.903000000     2.019000000
H    -0.832000000    -5.902000000     1.260000000
O    -5.478000000    -4.991000000     1.580000000
H    -5.157000000    -5.816000000     1.945000000
H    -4.688000000    -4.470000000     1.435000000
O     1.306000000    -6.680000000    -1.448000000
H     1.099000000    -7.175000000    -0.656000000
H     0.776000000    -5.886000000    -1.380000000
O    -3.017000000    -3.737000000     0.998000000
H    -2.122000000    -3.831000000     0.670000000
H    -2.929000000    -3.190000000     1.779000000
O     1.092000000    -7.985000000     1.016000000
H     0.397000000    -8.644000000     1.018000000
H     1.884000000    -8.472000000     1.245000000
O    -2.713000000    -7.598000000     4.551000000
H    -2.073000000    -7.357000000     5.221000000
H    -2.360000000    -7.231000000     3.740000000
