215
-1448.32283
C    -3.102000000    -0.819000000     3.091000000
H    -3.450000000     0.012000000     2.483000000
C    -2.081000000    -0.528000000     3.995000000
C    -1.446000000    -1.486000000     4.801000000
H    -0.754000000    -1.231000000     5.600000000
C    -1.498000000     0.847000000     3.875000000
O    -2.376000000     1.935000000     3.836000000
H    -1.052000000     0.799000000     2.870000000
O    -0.417000000     1.201000000     4.756000000
C     0.855000000     1.678000000     4.285000000
C     1.799000000     0.713000000     4.011000000
H     1.573000000    -0.337000000     4.177000000
C     2.989000000     1.082000000     3.398000000
O     3.926000000     0.108000000     3.101000000
C     3.163000000     2.363000000     2.931000000
C     4.343000000     2.774000000     2.080000000
H     4.514000000     3.849000000     2.170000000
C     4.367000000     2.410000000     0.637000000
C     3.832000000     3.298000000    -0.286000000
H     3.536000000     4.260000000     0.125000000
H     5.278000000     2.409000000     2.509000000
C     2.195000000     3.302000000     3.198000000
H     2.234000000     4.323000000     2.826000000
C     1.058000000     2.953000000     3.864000000
C    -0.089000000     3.911000000     3.985000000
H     0.208000000     4.954000000     4.109000000
H    -0.497000000     3.707000000     4.978000000
C    -1.123000000     3.842000000     2.873000000
C    -0.986000000     4.685000000     1.758000000
H    -0.163000000     5.368000000     1.564000000
C    -2.197000000     2.916000000     2.903000000
C    -3.096000000     2.930000000     1.893000000
H    -4.002000000     2.334000000     1.971000000
C    -3.035000000     3.773000000     0.792000000
O    -3.893000000     3.495000000    -0.297000000
C    -3.375000000     2.695000000    -1.394000000
C    -4.571000000     1.873000000    -1.987000000
C    -4.352000000     1.366000000    -3.278000000
H    -3.522000000     1.621000000    -3.932000000
C    -5.601000000     1.430000000    -1.162000000
H    -5.704000000     1.850000000    -0.165000000
O    -2.871000000     3.599000000    -2.452000000
H    -2.591000000     2.053000000    -0.966000000
C    -1.939000000     4.659000000     0.645000000
C    -1.652000000     5.450000000    -0.623000000
H    -1.077000000     6.342000000    -0.364000000
H    -2.601000000     5.782000000    -1.051000000
C    -0.854000000     4.564000000    -1.587000000
C     0.551000000     4.662000000    -1.617000000
H     1.007000000     5.272000000    -0.841000000
C    -1.478000000     3.701000000    -2.478000000
C    -0.757000000     2.945000000    -3.379000000
H    -1.167000000     2.236000000    -4.093000000
C     0.594000000     2.939000000    -3.294000000
O     1.215000000     2.028000000    -4.033000000
C     1.975000000     1.009000000    -3.379000000
C     1.800000000    -0.293000000    -4.131000000
C     0.498000000    -0.676000000    -4.451000000
H    -0.334000000     0.008000000    -4.296000000
C     2.864000000    -1.204000000    -4.358000000
H     3.901000000    -0.932000000    -4.181000000
O     3.317000000     1.278000000    -3.256000000
H     1.513000000     0.875000000    -2.390000000
C     1.333000000     3.880000000    -2.500000000
C     2.830000000     3.942000000    -2.562000000
H     3.174000000     4.960000000    -2.369000000
H     3.175000000     3.826000000    -3.592000000
C     3.535000000     2.974000000    -1.603000000
C     3.833000000     1.735000000    -2.078000000
C     4.431000000     0.806000000    -1.194000000
H     4.527000000    -0.185000000    -1.630000000
C     4.648000000     1.125000000     0.122000000
O     5.030000000     0.168000000     1.042000000
C     3.956000000    -0.410000000     1.838000000
H     2.973000000    -0.177000000     1.403000000
C     4.046000000    -1.930000000     1.857000000
C     3.779000000    -2.641000000     3.079000000
H     3.793000000    -2.097000000     4.021000000
C     4.406000000    -2.569000000     0.701000000
H     4.828000000    -2.088000000    -0.178000000
C     4.359000000    -3.949000000     0.630000000
O     4.916000000    -4.636000000    -0.438000000
C     3.966000000    -4.682000000     1.784000000
H     4.051000000    -5.765000000     1.816000000
C     3.681000000    -4.030000000     2.983000000
O     3.351000000    -4.673000000     4.212000000
C     2.379000000    -4.241000000     5.049000000
C     1.050000000    -4.076000000     4.632000000
H     0.820000000    -4.199000000     3.576000000
C     2.714000000    -4.083000000     6.368000000
H     3.755000000    -4.106000000     6.680000000
C     1.736000000    -3.967000000     7.362000000
H     2.100000000    -3.950000000     8.386000000
C     0.420000000    -3.870000000     6.991000000
H    -0.380000000    -3.742000000     7.716000000
C     0.091000000    -3.859000000     5.617000000
O    -1.221000000    -3.778000000     5.359000000
C    -1.784000000    -2.807000000     4.631000000
C    -2.741000000    -3.233000000     3.678000000
H    -3.016000000    -4.271000000     3.511000000
C    -3.400000000    -2.206000000     2.964000000
O    -4.384000000    -2.572000000     2.152000000
C    -5.569000000    -1.883000000     1.933000000
C    -5.843000000    -1.350000000     0.688000000
H    -5.065000000    -1.256000000    -0.066000000
C    -6.590000000    -2.100000000     2.854000000
H    -6.414000000    -2.542000000     3.831000000
C    -7.838000000    -1.599000000     2.528000000
H    -8.687000000    -1.849000000     3.159000000
C    -8.087000000    -0.988000000     1.363000000
H    -9.079000000    -0.605000000     1.141000000
C    -7.081000000    -0.803000000     0.433000000
O    -7.341000000    -0.127000000    -0.769000000
C    -6.382000000     0.419000000    -1.568000000
C    -6.357000000    -0.018000000    -2.916000000
H    -7.040000000    -0.761000000    -3.320000000
C    -5.291000000     0.364000000    -3.725000000
O    -5.212000000     0.062000000    -5.065000000
C    -4.018000000    -0.259000000    -5.684000000
C    -3.160000000    -1.145000000    -5.132000000
H    -3.428000000    -1.482000000    -4.134000000
C    -3.803000000     0.237000000    -6.969000000
H    -4.651000000     0.786000000    -7.370000000
C    -2.599000000    -0.045000000    -7.592000000
H    -2.489000000     0.319000000    -8.610000000
C    -1.705000000    -0.889000000    -7.085000000
H    -0.851000000    -1.130000000    -7.713000000
C    -2.019000000    -1.498000000    -5.825000000
O    -1.045000000    -2.337000000    -5.229000000
C     0.236000000    -1.967000000    -4.980000000
C     1.256000000    -2.834000000    -5.195000000
H     1.001000000    -3.810000000    -5.600000000
C     2.567000000    -2.452000000    -4.845000000
O     3.574000000    -3.387000000    -4.885000000
C     4.556000000    -3.455000000    -3.855000000
C     5.703000000    -2.614000000    -3.911000000
H     5.889000000    -2.065000000    -4.830000000
C     6.663000000    -2.655000000    -2.897000000
H     7.698000000    -2.333000000    -2.981000000
C     6.442000000    -3.511000000    -1.839000000
H     7.158000000    -3.563000000    -1.023000000
C     5.228000000    -4.078000000    -1.714000000
C     4.243000000    -3.979000000    -2.636000000
H     3.272000000    -4.410000000    -2.408000000
C     0.724000000    -2.652000000     0.624000000
H     1.234000000    -3.197000000     1.414000000
C     0.417000000    -1.276000000     0.713000000
H     0.639000000    -0.736000000     1.630000000
C    -0.353000000    -0.670000000    -0.338000000
H    -0.691000000     0.401000000    -0.325000000
C    -0.713000000    -1.386000000    -1.497000000
H    -1.330000000    -0.948000000    -2.277000000
C    -0.276000000    -2.713000000    -1.595000000
H    -0.517000000    -3.213000000    -2.530000000
C     0.387000000    -3.368000000    -0.557000000
C     0.791000000    -4.779000000    -0.661000000
O     0.652000000    -5.277000000    -1.764000000
O     1.133000000    -5.467000000     0.285000000
O    -1.193000000    -6.998000000    -0.403000000
H    -0.938000000    -6.848000000     0.507000000
H    -0.816000000    -6.260000000    -0.882000000
O    -0.938000000    -5.917000000    -3.728000000
H    -0.529000000    -5.730000000    -4.572000000
H    -0.320000000    -5.577000000    -3.081000000
O     4.681000000    -8.564000000    -0.329000000
H     4.363000000    -9.400000000    -0.671000000
H     3.984000000    -8.263000000     0.254000000
O    -3.174000000    -3.001000000    -1.532000000
H    -2.376000000    -2.570000000    -1.225000000
H    -3.153000000    -3.865000000    -1.120000000
O     3.841000000    -7.779000000    -4.149000000
H     4.449000000    -7.056000000    -3.996000000
H     3.240000000    -7.747000000    -3.405000000
O     1.457000000    -7.609000000     3.876000000
H     2.408000000    -7.511000000     3.914000000
H     1.230000000    -8.069000000     4.684000000
O     2.248000000    -7.666000000    -1.970000000
H     2.918000000    -7.669000000    -1.287000000
H     1.806000000    -6.823000000    -1.869000000
O    -1.617000000    -8.438000000    -5.787000000
H    -1.588000000    -7.501000000    -5.979000000
H    -0.842000000    -8.597000000    -5.248000000
O     6.970000000    -7.361000000    -1.692000000
H     6.474000000    -7.118000000    -2.474000000
H     6.366000000    -7.202000000    -0.967000000
O     0.317000000    -9.061000000    -4.106000000
H     0.215000000    -9.962000000    -3.800000000
H     0.554000000    -8.567000000    -3.321000000
O     1.981000000    -7.196000000    -6.461000000
H     1.996000000    -8.059000000    -6.874000000
H     2.430000000    -7.322000000    -5.625000000
O    -3.454000000    -4.383000000    -4.234000000
H    -2.538000000    -4.653000000    -4.298000000
H    -3.497000000    -3.869000000    -3.428000000
O    -2.316000000    -7.974000000    -2.519000000
H    -2.079000000    -7.269000000    -3.122000000
H    -1.964000000    -7.694000000    -1.674000000
O    -0.348000000    -6.507000000     2.393000000
H     0.306000000    -6.917000000     2.959000000
H     0.157000000    -5.917000000     1.833000000
O     2.507000000    -7.551000000     0.995000000
H     2.163000000    -7.728000000     1.870000000
H     2.078000000    -6.738000000     0.728000000
O    -3.625000000    -5.284000000    -0.099000000
H    -3.952000000    -5.531000000     0.765000000
H    -3.006000000    -5.977000000    -0.328000000
O    -2.649000000    -7.944000000     3.824000000
H    -1.834000000    -7.690000000     3.392000000
H    -3.323000000    -7.822000000     3.155000000
O     0.091000000    -9.583000000    -0.350000000
H     0.982000000    -9.238000000    -0.405000000
H    -0.451000000    -8.913000000    -0.767000000
O    -0.490000000    -5.998000000    -6.644000000
H     0.282000000    -6.564000000    -6.627000000
H    -0.326000000    -5.391000000    -7.365000000
