215
-1474.39586
C    -3.704000000    -1.704000000     3.360000000
H    -4.366000000    -0.898000000     3.055000000
C    -2.391000000    -1.404000000     3.790000000
C    -1.545000000    -2.374000000     4.264000000
H    -0.505000000    -2.199000000     4.528000000
C    -1.870000000     0.044000000     3.747000000
O    -2.926000000     1.030000000     3.702000000
H    -1.335000000     0.094000000     2.788000000
O    -0.948000000     0.327000000     4.820000000
C     0.185000000     1.015000000     4.524000000
C     1.365000000     0.328000000     4.529000000
H     1.376000000    -0.722000000     4.810000000
C     2.514000000     0.933000000     4.064000000
O     3.635000000     0.198000000     3.759000000
C     2.498000000     2.284000000     3.649000000
C     3.701000000     3.011000000     3.079000000
H     3.670000000     4.080000000     3.300000000
C     3.824000000     2.724000000     1.560000000
C     3.352000000     3.742000000     0.707000000
H     3.106000000     4.723000000     1.107000000
H     4.555000000     2.707000000     3.687000000
C     1.314000000     2.983000000     3.715000000
H     1.233000000     4.046000000     3.498000000
C     0.124000000     2.358000000     4.142000000
C    -1.143000000     3.183000000     4.319000000
H    -0.985000000     4.202000000     4.680000000
H    -1.680000000     2.745000000     5.163000000
C    -1.951000000     3.191000000     3.045000000
C    -1.823000000     4.172000000     2.068000000
H    -1.184000000     5.029000000     2.265000000
C    -2.858000000     2.117000000     2.824000000
C    -3.530000000     1.945000000     1.651000000
H    -4.260000000     1.147000000     1.541000000
C    -3.386000000     2.901000000     0.655000000
O    -4.018000000     2.755000000    -0.533000000
C    -3.199000000     2.212000000    -1.565000000
C    -3.881000000     1.084000000    -2.316000000
C    -3.692000000     0.853000000    -3.688000000
H    -3.105000000     1.567000000    -4.260000000
C    -4.699000000     0.232000000    -1.616000000
H    -5.048000000     0.421000000    -0.604000000
O    -2.824000000     3.331000000    -2.433000000
H    -2.340000000     1.754000000    -1.052000000
C    -2.478000000     3.979000000     0.866000000
C    -2.262000000     5.107000000    -0.147000000
H    -1.826000000     5.989000000     0.327000000
H    -3.242000000     5.350000000    -0.563000000
C    -1.195000000     4.682000000    -1.178000000
C     0.167000000     5.054000000    -1.025000000
H     0.436000000     5.709000000    -0.199000000
C    -1.591000000     3.936000000    -2.311000000
C    -0.610000000     3.508000000    -3.177000000
H    -0.815000000     2.887000000    -4.045000000
C     0.722000000     3.725000000    -2.850000000
O     1.576000000     3.053000000    -3.679000000
C     2.081000000     1.866000000    -3.146000000
C     2.121000000     0.725000000    -4.203000000
C     1.406000000     0.756000000    -5.352000000
H     0.698000000     1.569000000    -5.491000000
C     2.958000000    -0.446000000    -3.949000000
H     3.514000000    -0.432000000    -3.014000000
O     3.390000000     2.062000000    -2.597000000
H     1.250000000     1.556000000    -2.496000000
C     1.134000000     4.442000000    -1.766000000
C     2.577000000     4.733000000    -1.398000000
H     2.569000000     5.680000000    -0.855000000
H     3.203000000     4.932000000    -2.270000000
C     3.143000000     3.556000000    -0.649000000
C     3.597000000     2.309000000    -1.244000000
C     4.096000000     1.343000000    -0.414000000
H     4.333000000     0.395000000    -0.890000000
C     4.253000000     1.499000000     0.962000000
O     4.651000000     0.430000000     1.681000000
C     3.697000000    -0.350000000     2.474000000
H     2.741000000    -0.148000000     1.969000000
C     4.020000000    -1.845000000     2.296000000
C     3.700000000    -2.771000000     3.290000000
H     3.220000000    -2.451000000     4.211000000
C     4.551000000    -2.342000000     1.119000000
H     4.682000000    -1.630000000     0.308000000
C     4.816000000    -3.713000000     0.930000000
O     5.336000000    -4.196000000    -0.266000000
C     4.544000000    -4.635000000     1.945000000
H     4.680000000    -5.711000000     1.871000000
C     3.953000000    -4.130000000     3.153000000
O     3.669000000    -5.038000000     4.088000000
C     2.478000000    -4.831000000     4.866000000
C     1.204000000    -4.947000000     4.307000000
H     1.078000000    -5.246000000     3.270000000
C     2.679000000    -4.396000000     6.170000000
H     3.683000000    -4.276000000     6.568000000
C     1.565000000    -4.045000000     6.905000000
H     1.626000000    -3.663000000     7.920000000
C     0.269000000    -4.083000000     6.353000000
H    -0.483000000    -3.605000000     6.976000000
C     0.075000000    -4.637000000     5.101000000
O    -1.210000000    -4.848000000     4.687000000
C    -1.963000000    -3.719000000     4.231000000
C    -3.271000000    -4.035000000     3.867000000
H    -3.554000000    -5.071000000     3.700000000
C    -4.121000000    -3.022000000     3.344000000
O    -5.331000000    -3.446000000     2.812000000
C    -6.072000000    -2.638000000     1.925000000
C    -5.659000000    -2.526000000     0.557000000
H    -4.624000000    -2.794000000     0.365000000
C    -7.323000000    -2.002000000     2.242000000
H    -7.708000000    -2.041000000     3.258000000
C    -8.124000000    -1.396000000     1.249000000
H    -9.095000000    -1.066000000     1.610000000
C    -7.692000000    -1.298000000    -0.068000000
H    -8.268000000    -0.781000000    -0.831000000
C    -6.443000000    -1.797000000    -0.378000000
O    -6.057000000    -1.800000000    -1.699000000
C    -5.224000000    -0.903000000    -2.253000000
C    -4.824000000    -1.242000000    -3.502000000
H    -5.208000000    -2.095000000    -4.055000000
C    -4.082000000    -0.346000000    -4.251000000
O    -3.957000000    -0.626000000    -5.616000000
C    -3.015000000     0.066000000    -6.371000000
C    -1.747000000    -0.489000000    -6.442000000
H    -1.580000000    -1.428000000    -5.918000000
C    -3.321000000     1.334000000    -6.945000000
H    -4.213000000     1.953000000    -6.889000000
C    -2.332000000     2.050000000    -7.652000000
H    -2.452000000     2.981000000    -8.201000000
C    -1.045000000     1.454000000    -7.822000000
H    -0.329000000     2.008000000    -8.424000000
C    -0.783000000     0.212000000    -7.224000000
O     0.490000000    -0.280000000    -7.358000000
C     1.387000000    -0.332000000    -6.257000000
C     2.133000000    -1.455000000    -5.996000000
H     2.158000000    -2.323000000    -6.649000000
C     2.870000000    -1.534000000    -4.800000000
O     3.423000000    -2.736000000    -4.433000000
C     4.539000000    -2.923000000    -3.622000000
C     5.876000000    -2.743000000    -4.083000000
H     6.015000000    -2.343000000    -5.084000000
C     7.010000000    -3.022000000    -3.331000000
H     8.004000000    -2.888000000    -3.748000000
C     6.825000000    -3.436000000    -2.025000000
H     7.661000000    -3.780000000    -1.423000000
C     5.509000000    -3.498000000    -1.460000000
C     4.377000000    -3.264000000    -2.259000000
H     3.400000000    -3.463000000    -1.825000000
C     0.474000000    -2.109000000     0.355000000
H     0.753000000    -3.002000000     0.909000000
C     0.562000000    -0.877000000     0.989000000
H     0.758000000    -0.978000000     2.054000000
C     0.324000000     0.319000000     0.319000000
H     0.331000000     1.202000000     0.887000000
C    -0.192000000     0.351000000    -0.949000000
H    -0.414000000     1.333000000    -1.360000000
C    -0.261000000    -0.851000000    -1.637000000
H    -0.502000000    -0.822000000    -2.696000000
C     0.065000000    -2.083000000    -0.976000000
C    -0.212000000    -3.404000000    -1.704000000
O    -0.335000000    -3.393000000    -2.886000000
O    -0.002000000    -4.408000000    -1.127000000
O    -1.111000000    -8.077000000    -1.264000000
H    -1.468000000    -7.500000000    -0.589000000
H    -0.824000000    -7.485000000    -1.959000000
O     0.883000000    -4.621000000    -5.153000000
H     1.539000000    -3.952000000    -4.959000000
H     0.125000000    -4.376000000    -4.622000000
O    -2.888000000    -3.889000000    -3.405000000
H    -2.034000000    -3.536000000    -3.154000000
H    -3.112000000    -3.422000000    -4.211000000
O    -4.888000000    -5.153000000    -1.518000000
H    -4.209000000    -5.296000000    -0.859000000
H    -4.577000000    -4.404000000    -2.025000000
O     5.030000000    -6.604000000    -1.897000000
H     5.272000000    -5.725000000    -1.605000000
H     4.165000000    -6.753000000    -1.515000000
O    -0.591000000    -6.335000000    -3.434000000
H     0.317000000    -6.142000000    -3.667000000
H    -0.921000000    -5.518000000    -3.060000000
O     1.197000000    -9.030000000    -2.870000000
H     0.476000000    -9.430000000    -2.383000000
H     1.978000000    -9.490000000    -2.562000000
O    -3.324000000    -3.999000000    -6.232000000
H    -4.055000000    -4.612000000    -6.145000000
H    -2.617000000    -4.522000000    -6.609000000
O    -0.333000000    -8.489000000    -5.691000000
H    -0.247000000    -8.534000000    -4.739000000
H     0.377000000    -7.910000000    -5.968000000
O     3.429000000    -6.350000000    -4.779000000
H     2.566000000    -6.110000000    -5.118000000
H     3.394000000    -6.119000000    -3.851000000
O    -0.748000000    -4.930000000    -7.228000000
H    -0.026000000    -5.115000000    -6.628000000
H    -0.795000000    -5.702000000    -7.791000000
O     0.670000000    -6.291000000     0.562000000
H     1.608000000    -6.378000000     0.392000000
H     0.392000000    -5.563000000     0.006000000
O    -4.100000000    -7.304000000     2.488000000
H    -3.182000000    -7.172000000     2.254000000
H    -4.538000000    -7.473000000     1.653000000
O     2.129000000    -5.799000000    -2.294000000
H     2.010000000    -6.665000000    -1.905000000
H     1.489000000    -5.245000000    -1.848000000
O    -2.541000000    -5.056000000     0.494000000
H    -2.077000000    -5.746000000     0.967000000
H    -1.915000000    -4.751000000    -0.162000000
O    -2.016000000    -9.843000000    -3.398000000
H    -1.704000000    -8.965000000    -3.177000000
H    -2.664000000    -9.700000000    -4.088000000
O     3.105000000    -7.804000000    -0.391000000
H     2.432000000    -8.466000000    -0.551000000
H     3.496000000    -8.057000000     0.445000000
O    -3.385000000    -6.895000000    -4.877000000
H    -3.878000000    -6.585000000    -4.117000000
H    -2.478000000    -6.658000000    -4.686000000
O    -1.367000000    -7.243000000     1.639000000
H    -1.275000000    -7.455000000     2.568000000
H    -0.546000000    -6.806000000     1.411000000
