215
-1439.27985
C    -3.513000000    -0.549000000     3.279000000
H    -3.879000000     0.025000000     2.431000000
C    -2.417000000    -0.191000000     4.013000000
C    -2.000000000    -1.053000000     5.057000000
H    -1.159000000    -0.871000000     5.721000000
C    -1.748000000     1.188000000     3.801000000
O    -2.791000000     2.202000000     3.497000000
H    -1.162000000     1.067000000     2.878000000
O    -0.850000000     1.602000000     4.851000000
C     0.363000000     2.179000000     4.463000000
C     1.477000000     1.313000000     4.436000000
H     1.388000000     0.358000000     4.948000000
C     2.681000000     1.567000000     3.774000000
O     3.559000000     0.505000000     3.701000000
C     2.821000000     2.744000000     3.072000000
C     4.079000000     2.973000000     2.270000000
H     4.287000000     4.040000000     2.167000000
C     3.936000000     2.416000000     0.912000000
C     3.672000000     3.336000000    -0.099000000
H     3.496000000     4.389000000     0.105000000
H     4.936000000     2.558000000     2.804000000
C     1.767000000     3.655000000     3.077000000
H     1.771000000     4.574000000     2.498000000
C     0.508000000     3.299000000     3.659000000
C    -0.687000000     4.257000000     3.633000000
H    -0.183000000     5.223000000     3.561000000
H    -1.256000000     4.214000000     4.564000000
C    -1.551000000     3.996000000     2.368000000
C    -1.327000000     4.762000000     1.176000000
H    -0.590000000     5.560000000     1.207000000
C    -2.599000000     3.072000000     2.438000000
C    -3.260000000     2.757000000     1.236000000
H    -3.975000000     1.939000000     1.209000000
C    -2.904000000     3.431000000     0.050000000
O    -3.646000000     2.975000000    -1.073000000
C    -2.911000000     2.171000000    -2.003000000
C    -3.957000000     1.219000000    -2.603000000
C    -3.634000000     0.573000000    -3.761000000
H    -2.794000000     0.890000000    -4.373000000
C    -4.944000000     0.660000000    -1.837000000
H    -5.159000000     1.184000000    -0.909000000
O    -2.289000000     3.065000000    -3.016000000
H    -2.147000000     1.601000000    -1.454000000
C    -1.962000000     4.448000000     0.002000000
C    -1.535000000     5.185000000    -1.316000000
H    -1.241000000     6.222000000    -1.139000000
H    -2.371000000     5.349000000    -1.998000000
C    -0.555000000     4.383000000    -2.210000000
C     0.806000000     4.488000000    -1.982000000
H     1.045000000     5.103000000    -1.118000000
C    -0.976000000     3.345000000    -3.055000000
C    -0.088000000     2.533000000    -3.760000000
H    -0.445000000     1.674000000    -4.323000000
C     1.276000000     2.742000000    -3.646000000
O     2.144000000     1.867000000    -4.344000000
C     2.640000000     0.777000000    -3.429000000
C     2.573000000    -0.569000000    -4.220000000
C     1.539000000    -0.777000000    -5.094000000
H     0.918000000     0.080000000    -5.342000000
C     3.402000000    -1.664000000    -3.927000000
H     4.171000000    -1.508000000    -3.174000000
O     3.900000000     1.075000000    -2.902000000
H     1.878000000     0.569000000    -2.663000000
C     1.726000000     3.715000000    -2.772000000
C     3.233000000     3.886000000    -2.530000000
H     3.473000000     4.850000000    -2.078000000
H     3.767000000     3.738000000    -3.471000000
C     3.584000000     2.903000000    -1.422000000
C     3.829000000     1.551000000    -1.669000000
C     4.172000000     0.668000000    -0.660000000
H     4.399000000    -0.332000000    -1.019000000
C     4.243000000     1.085000000     0.622000000
O     4.627000000     0.215000000     1.579000000
C     3.550000000    -0.221000000     2.412000000
H     2.573000000     0.016000000     1.966000000
C     3.493000000    -1.768000000     2.562000000
C     2.970000000    -2.405000000     3.697000000
H     2.642000000    -1.769000000     4.515000000
C     3.788000000    -2.593000000     1.467000000
H     4.067000000    -2.206000000     0.490000000
C     3.715000000    -4.003000000     1.539000000
O     3.781000000    -4.752000000     0.366000000
C     3.257000000    -4.587000000     2.678000000
H     3.134000000    -5.657000000     2.826000000
C     2.950000000    -3.806000000     3.824000000
O     2.355000000    -4.418000000     4.840000000
C     1.518000000    -3.814000000     5.722000000
C     0.155000000    -3.849000000     5.569000000
H    -0.242000000    -4.316000000     4.671000000
C     1.981000000    -3.121000000     6.783000000
H     3.059000000    -3.022000000     6.881000000
C     1.197000000    -2.490000000     7.722000000
H     1.673000000    -1.907000000     8.506000000
C    -0.200000000    -2.496000000     7.587000000
H    -0.805000000    -1.890000000     8.257000000
C    -0.690000000    -3.233000000     6.484000000
O    -2.016000000    -3.264000000     6.082000000
C    -2.544000000    -2.338000000     5.193000000
C    -3.480000000    -2.696000000     4.273000000
H    -3.879000000    -3.704000000     4.350000000
C    -4.025000000    -1.817000000     3.317000000
O    -5.022000000    -2.322000000     2.457000000
C    -5.999000000    -1.588000000     1.837000000
C    -5.915000000    -1.495000000     0.452000000
H    -5.051000000    -1.920000000    -0.052000000
C    -7.094000000    -1.073000000     2.523000000
H    -7.232000000    -1.122000000     3.600000000
C    -8.135000000    -0.496000000     1.798000000
H    -8.941000000    -0.040000000     2.367000000
C    -8.135000000    -0.404000000     0.385000000
H    -8.960000000     0.053000000    -0.155000000
C    -6.971000000    -0.919000000    -0.251000000
O    -6.919000000    -0.857000000    -1.619000000
C    -5.802000000    -0.384000000    -2.249000000
C    -5.529000000    -0.953000000    -3.501000000
H    -6.161000000    -1.785000000    -3.800000000
C    -4.387000000    -0.533000000    -4.196000000
O    -4.082000000    -1.066000000    -5.401000000
C    -2.987000000    -0.796000000    -6.229000000
C    -1.831000000    -1.598000000    -6.133000000
H    -1.862000000    -2.539000000    -5.590000000
C    -2.970000000     0.294000000    -7.109000000
H    -3.833000000     0.944000000    -7.232000000
C    -1.785000000     0.527000000    -7.877000000
H    -1.787000000     1.463000000    -8.431000000
C    -0.637000000    -0.251000000    -7.772000000
H     0.252000000    -0.008000000    -8.349000000
C    -0.672000000    -1.301000000    -6.852000000
O     0.447000000    -2.089000000    -6.783000000
C     1.354000000    -1.980000000    -5.750000000
C     2.177000000    -3.089000000    -5.449000000
H     2.123000000    -4.027000000    -5.997000000
C     3.259000000    -2.919000000    -4.565000000
O     4.068000000    -3.973000000    -4.356000000
C     4.687000000    -4.170000000    -3.094000000
C     6.069000000    -4.195000000    -3.050000000
H     6.619000000    -4.159000000    -3.987000000
C     6.712000000    -4.414000000    -1.800000000
H     7.798000000    -4.442000000    -1.852000000
C     5.912000000    -4.649000000    -0.705000000
H     6.375000000    -4.771000000     0.271000000
C     4.548000000    -4.578000000    -0.735000000
C     3.914000000    -4.419000000    -1.948000000
H     2.835000000    -4.295000000    -1.997000000
C     0.402000000    -2.375000000     1.637000000
H     0.306000000    -3.095000000     2.446000000
C     0.421000000    -1.033000000     2.002000000
H     0.201000000    -0.808000000     3.043000000
C     0.514000000    -0.045000000     1.048000000
H     0.246000000     0.994000000     1.395000000
C     0.669000000    -0.357000000    -0.264000000
H     0.593000000     0.420000000    -1.020000000
C     0.654000000    -1.670000000    -0.639000000
H     0.806000000    -1.960000000    -1.675000000
C     0.578000000    -2.707000000     0.306000000
C     0.450000000    -4.165000000    -0.199000000
O     0.383000000    -4.329000000    -1.400000000
O     0.222000000    -5.113000000     0.535000000
O    -0.072000000    -8.909000000    -1.199000000
H     0.274000000    -9.700000000    -1.610000000
H     0.688000000    -8.334000000    -1.106000000
O     0.133000000    -6.202000000    -3.244000000
H     0.136000000    -7.017000000    -2.741000000
H     0.203000000    -5.513000000    -2.583000000
O    -2.504000000    -2.716000000    -0.198000000
H    -2.657000000    -3.658000000    -0.131000000
H    -1.598000000    -2.599000000     0.091000000
O    -4.229000000    -6.474000000    -1.194000000
H    -4.610000000    -7.173000000    -0.662000000
H    -3.360000000    -6.333000000    -0.818000000
O    -2.482000000    -8.566000000     4.095000000
H    -3.081000000    -8.106000000     4.684000000
H    -1.732000000    -7.977000000     4.009000000
O     2.119000000    -7.174000000     0.051000000
H     2.971000000    -6.789000000     0.258000000
H     1.522000000    -6.427000000     0.011000000
O    -3.718000000    -4.823000000    -4.609000000
H    -3.114000000    -4.347000000    -4.039000000
H    -3.149000000    -5.336000000    -5.185000000
O     3.000000000    -9.309000000    -1.668000000
H     3.459000000    -9.977000000    -1.159000000
H     2.838000000    -8.601000000    -1.044000000
O     5.764000000    -7.756000000    -2.061000000
H     6.691000000    -7.847000000    -1.837000000
H     5.369000000    -7.355000000    -1.287000000
O    -3.417000000    -7.925000000    -3.672000000
H    -2.558000000    -8.244000000    -3.950000000
H    -3.266000000    -7.560000000    -2.800000000
O    -1.316000000    -5.425000000    -5.654000000
H    -0.594000000    -5.654000000    -6.239000000
H    -1.107000000    -5.867000000    -4.831000000
O     5.356000000    -7.444000000     0.835000000
H     4.873000000    -8.267000000     0.761000000
H     5.226000000    -7.170000000     1.743000000
O    -2.000000000    -3.260000000    -3.089000000
H    -1.174000000    -3.569000000    -2.716000000
H    -2.387000000    -2.720000000    -2.400000000
O    -3.073000000    -9.974000000    -0.667000000
H    -2.435000000    -9.587000000    -1.266000000
H    -3.039000000   -10.912000000    -0.856000000
O    -1.636000000    -6.557000000    -0.459000000
H    -0.924000000    -6.067000000    -0.048000000
H    -1.198000000    -7.153000000    -1.066000000
O    -0.160000000    -6.467000000     3.022000000
H     0.281000000    -7.282000000     2.785000000
H     0.056000000    -5.862000000     2.313000000
O     0.804000000    -8.696000000     1.743000000
H     1.267000000    -8.408000000     0.956000000
H     0.012000000    -9.120000000     1.414000000
O     2.783000000    -6.519000000    -5.283000000
H     3.632000000    -6.934000000    -5.132000000
H     2.971000000    -5.580000000    -5.278000000
O    -4.427000000    -6.453000000     2.049000000
H    -4.750000000    -7.243000000     1.616000000
H    -3.474000000    -6.540000000     2.026000000
