215
-1446.88939
C     2.726000000     2.454000000    -3.560000000
H     2.567000000     1.454000000    -3.956000000
C     3.293000000     2.496000000    -2.279000000
C     3.371000000     3.752000000    -1.630000000
H     3.715000000     3.825000000    -0.602000000
C     3.716000000     1.176000000    -1.589000000
O     4.386000000     0.282000000    -2.496000000
H     2.812000000     0.688000000    -1.196000000
O     4.622000000     1.444000000    -0.556000000
C     4.390000000     0.831000000     0.678000000
C     3.736000000     1.551000000     1.648000000
H     3.497000000     2.611000000     1.618000000
C     3.302000000     0.804000000     2.775000000
O     2.578000000     1.457000000     3.658000000
C     3.619000000    -0.539000000     2.941000000
C     3.274000000    -1.257000000     4.258000000
H     3.953000000    -2.096000000     4.425000000
C     1.841000000    -1.825000000     4.205000000
C     1.631000000    -3.054000000     3.524000000
H     2.456000000    -3.602000000     3.077000000
H     3.359000000    -0.554000000     5.089000000
C     4.269000000    -1.192000000     1.915000000
H     4.480000000    -2.253000000     2.021000000
C     4.675000000    -0.486000000     0.836000000
C     5.420000000    -1.344000000    -0.293000000
H     5.895000000    -2.155000000     0.263000000
H     6.230000000    -0.828000000    -0.813000000
C     4.423000000    -1.850000000    -1.334000000
C     3.884000000    -3.146000000    -1.258000000
H     4.266000000    -3.782000000    -0.464000000
C     3.967000000    -1.063000000    -2.387000000
C     2.898000000    -1.465000000    -3.175000000
H     2.531000000    -0.744000000    -3.901000000
C     2.316000000    -2.701000000    -3.012000000
O     1.252000000    -2.990000000    -3.817000000
C    -0.050000000    -2.828000000    -3.313000000
C    -0.955000000    -2.222000000    -4.361000000
C    -2.301000000    -2.430000000    -4.219000000
H    -2.685000000    -3.100000000    -3.454000000
C    -0.394000000    -1.413000000    -5.407000000
H     0.679000000    -1.316000000    -5.553000000
O    -0.302000000    -4.126000000    -2.861000000
H    -0.029000000    -2.068000000    -2.518000000
C     2.799000000    -3.547000000    -2.108000000
C     2.192000000    -4.892000000    -1.806000000
H     2.918000000    -5.563000000    -1.344000000
H     1.929000000    -5.433000000    -2.717000000
C     0.931000000    -4.734000000    -0.905000000
C     1.036000000    -4.945000000     0.458000000
H     2.001000000    -5.182000000     0.898000000
C    -0.273000000    -4.291000000    -1.486000000
C    -1.396000000    -4.118000000    -0.684000000
H    -2.389000000    -3.938000000    -1.090000000
C    -1.259000000    -4.206000000     0.673000000
O    -2.421000000    -3.875000000     1.369000000
C    -2.284000000    -2.654000000     2.154000000
C    -3.552000000    -1.809000000     2.014000000
C    -4.299000000    -1.827000000     0.837000000
H    -3.963000000    -2.364000000    -0.047000000
C    -3.965000000    -1.040000000     3.123000000
H    -3.490000000    -1.001000000     4.100000000
O    -1.995000000    -3.075000000     3.545000000
H    -1.500000000    -2.047000000     1.678000000
C    -0.080000000    -4.654000000     1.252000000
C     0.085000000    -4.896000000     2.756000000
H     0.924000000    -5.580000000     2.902000000
H    -0.831000000    -5.348000000     3.141000000
C     0.326000000    -3.546000000     3.486000000
C    -0.678000000    -2.762000000     3.955000000
C    -0.496000000    -1.601000000     4.603000000
H    -1.348000000    -0.959000000     4.809000000
C     0.791000000    -1.094000000     4.699000000
O     0.973000000     0.237000000     4.975000000
C     1.223000000     1.125000000     3.842000000
H     0.874000000     0.635000000     2.921000000
C     0.369000000     2.354000000     3.784000000
C     0.662000000     3.414000000     2.938000000
H     1.394000000     3.293000000     2.144000000
C    -0.825000000     2.464000000     4.555000000
H    -1.135000000     1.635000000     5.187000000
C    -1.533000000     3.660000000     4.646000000
O    -2.618000000     3.753000000     5.512000000
C    -1.070000000     4.732000000     3.939000000
H    -1.532000000     5.713000000     4.021000000
C     0.010000000     4.590000000     3.020000000
O     0.354000000     5.754000000     2.404000000
C     1.559000000     6.025000000     1.855000000
C     1.776000000     5.784000000     0.510000000
H     0.970000000     5.345000000    -0.073000000
C     2.628000000     6.527000000     2.611000000
H     2.513000000     6.583000000     3.690000000
C     3.831000000     6.961000000     1.991000000
H     4.554000000     7.561000000     2.539000000
C     3.935000000     6.766000000     0.580000000
H     4.843000000     7.141000000     0.115000000
C     2.926000000     6.174000000    -0.143000000
O     3.029000000     6.055000000    -1.501000000
C     2.980000000     4.907000000    -2.266000000
C     2.388000000     4.895000000    -3.500000000
H     2.052000000     5.863000000    -3.862000000
C     2.172000000     3.620000000    -4.094000000
O     1.577000000     3.537000000    -5.333000000
C     1.595000000     2.410000000    -6.118000000
C     0.480000000     1.651000000    -6.207000000
H    -0.319000000     1.807000000    -5.487000000
C     2.600000000     2.357000000    -7.157000000
H     3.430000000     3.052000000    -7.061000000
C     2.485000000     1.392000000    -8.162000000
H     3.177000000     1.483000000    -8.996000000
C     1.322000000     0.561000000    -8.134000000
H     1.133000000    -0.170000000    -8.915000000
C     0.369000000     0.707000000    -7.195000000
O    -0.727000000    -0.079000000    -7.250000000
C    -1.249000000    -0.797000000    -6.219000000
C    -2.635000000    -0.973000000    -6.064000000
H    -3.310000000    -0.646000000    -6.850000000
C    -3.152000000    -1.667000000    -4.968000000
O    -4.556000000    -1.653000000    -4.772000000
C    -5.096000000    -2.205000000    -3.669000000
C    -5.436000000    -1.397000000    -2.555000000
H    -5.146000000    -0.354000000    -2.662000000
C    -5.437000000    -3.553000000    -3.626000000
H    -5.147000000    -4.157000000    -4.482000000
C    -5.991000000    -4.116000000    -2.434000000
H    -6.297000000    -5.152000000    -2.313000000
C    -6.246000000    -3.295000000    -1.389000000
H    -6.800000000    -3.631000000    -0.516000000
C    -6.002000000    -1.919000000    -1.417000000
O    -6.299000000    -1.151000000    -0.346000000
C    -5.600000000    -1.245000000     0.851000000
C    -5.981000000    -0.425000000     1.901000000
H    -6.952000000     0.059000000     1.969000000
C    -5.131000000    -0.257000000     2.990000000
O    -5.719000000     0.459000000     4.119000000
C    -5.121000000     1.132000000     5.072000000
C    -5.703000000     1.214000000     6.322000000
H    -6.618000000     0.684000000     6.573000000
C    -5.247000000     2.125000000     7.338000000
H    -5.777000000     2.141000000     8.287000000
C    -4.088000000     2.860000000     7.070000000
H    -3.574000000     3.520000000     7.763000000
C    -3.509000000     2.766000000     5.830000000
C    -3.999000000     1.924000000     4.837000000
H    -3.696000000     2.017000000     3.797000000
C    -2.497000000     0.829000000    -0.352000000
H    -3.566000000     0.633000000    -0.307000000
C    -1.473000000    -0.184000000    -0.356000000
H    -1.754000000    -1.232000000    -0.293000000
C    -0.135000000     0.201000000    -0.249000000
H     0.623000000    -0.562000000    -0.044000000
C     0.257000000     1.539000000    -0.233000000
H     1.324000000     1.746000000    -0.205000000
C    -0.757000000     2.511000000    -0.212000000
H    -0.436000000     3.549000000    -0.188000000
C    -2.115000000     2.191000000    -0.335000000
C    -3.194000000     3.283000000    -0.393000000
O    -2.950000000     4.478000000    -0.029000000
O    -4.197000000     3.067000000    -1.041000000
O    -4.291000000     4.203000000     2.486000000
H    -3.715000000     4.267000000     1.724000000
H    -4.956000000     3.564000000     2.231000000
O    -2.587000000     8.643000000     1.991000000
H    -2.325000000     7.939000000     1.397000000
H    -2.302000000     8.345000000     2.855000000
O    -4.183000000     6.215000000     4.425000000
H    -4.766000000     6.690000000     3.833000000
H    -4.000000000     5.392000000     3.971000000
O    -1.308000000     4.991000000    -3.183000000
H    -1.646000000     5.082000000    -2.292000000
H    -1.265000000     5.887000000    -3.516000000
O    -3.588000000     9.159000000    -0.965000000
H    -3.868000000     8.607000000    -0.235000000
H    -2.662000000     8.946000000    -1.084000000
O    -4.418000000     2.084000000    -3.604000000
H    -3.683000000     1.489000000    -3.453000000
H    -4.445000000     2.634000000    -2.821000000
O    -6.767000000     1.647000000    -1.451000000
H    -7.058000000     1.074000000    -0.742000000
H    -5.877000000     1.898000000    -1.205000000
O    -0.893000000     7.580000000    -3.581000000
H    -0.970000000     7.969000000    -4.453000000
H    -0.874000000     8.329000000    -2.986000000
O    -0.886000000     9.015000000    -1.094000000
H    -0.107000000     9.524000000    -0.872000000
H    -0.726000000     8.153000000    -0.711000000
O    -6.900000000     5.406000000     0.901000000
H    -6.343000000     4.988000000     0.244000000
H    -6.837000000     4.836000000     1.667000000
O    -6.743000000     7.759000000    -2.133000000
H    -5.959000000     7.244000000    -1.946000000
H    -6.992000000     8.132000000    -1.287000000
O    -4.519000000     6.035000000    -1.773000000
H    -4.718000000     5.280000000    -2.327000000
H    -3.987000000     5.677000000    -1.062000000
O    -3.345000000     4.294000000    -5.269000000
H    -4.251000000     4.170000000    -4.988000000
H    -2.832000000     4.219000000    -4.465000000
O    -1.459000000     6.506000000     0.642000000
H    -0.940000000     6.123000000     1.350000000
H    -2.098000000     5.830000000     0.420000000
O    -7.310000000     8.085000000     0.662000000
H    -6.790000000     8.582000000     1.293000000
H    -7.147000000     7.169000000     0.887000000
O    -6.530000000     1.156000000    -5.286000000
H    -7.235000000     1.782000000    -5.447000000
H    -6.118000000     1.462000000    -4.478000000
O    -9.379000000     3.149000000    -1.366000000
H    -9.429000000     3.509000000    -2.252000000
H    -8.540000000     2.690000000    -1.341000000
O    -6.678000000     2.680000000     2.428000000
H    -6.439000000     1.813000000     2.756000000
H    -7.037000000     3.133000000     3.191000000
O    -1.144000000     1.873000000    -3.234000000
H    -0.790000000     1.721000000    -2.358000000
H    -1.070000000     2.819000000    -3.361000000
