215
-1447.57694
C    -4.106000000    -0.891000000     2.957000000
H    -4.515000000    -0.283000000     2.154000000
C    -3.042000000    -0.469000000     3.682000000
C    -2.440000000    -1.364000000     4.570000000
H    -1.508000000    -1.143000000     5.084000000
C    -2.361000000     0.906000000     3.383000000
O    -3.316000000     1.812000000     2.969000000
H    -1.743000000     0.686000000     2.500000000
O    -1.611000000     1.362000000     4.470000000
C    -0.381000000     1.973000000     4.193000000
C     0.789000000     1.192000000     4.391000000
H     0.759000000     0.209000000     4.854000000
C     2.038000000     1.667000000     3.952000000
O     3.104000000     0.782000000     3.882000000
C     2.112000000     2.871000000     3.307000000
C     3.446000000     3.420000000     2.795000000
H     3.481000000     4.511000000     2.762000000
C     3.771000000     3.019000000     1.427000000
C     3.320000000     3.818000000     0.362000000
H     2.793000000     4.750000000     0.550000000
H     4.253000000     3.126000000     3.470000000
C     0.944000000     3.690000000     3.148000000
H     0.998000000     4.647000000     2.634000000
C    -0.301000000     3.233000000     3.590000000
C    -1.528000000     4.028000000     3.259000000
H    -1.284000000     5.092000000     3.290000000
H    -2.276000000     3.962000000     4.052000000
C    -2.136000000     3.639000000     1.922000000
C    -1.852000000     4.400000000     0.815000000
H    -1.018000000     5.096000000     0.851000000
C    -3.011000000     2.616000000     1.873000000
C    -3.681000000     2.370000000     0.745000000
H    -4.470000000     1.622000000     0.770000000
C    -3.401000000     3.128000000    -0.417000000
O    -3.886000000     2.718000000    -1.645000000
C    -3.084000000     1.835000000    -2.430000000
C    -3.847000000     0.640000000    -3.019000000
C    -3.310000000    -0.134000000    -4.054000000
H    -2.397000000     0.184000000    -4.551000000
C    -5.041000000     0.235000000    -2.485000000
H    -5.513000000     0.741000000    -1.647000000
O    -2.293000000     2.495000000    -3.423000000
H    -2.343000000     1.367000000    -1.766000000
C    -2.477000000     4.150000000    -0.404000000
C    -2.028000000     4.876000000    -1.629000000
H    -1.748000000     5.897000000    -1.361000000
H    -2.885000000     5.057000000    -2.280000000
C    -0.831000000     4.170000000    -2.323000000
C     0.442000000     4.646000000    -2.087000000
H     0.592000000     5.470000000    -1.394000000
C    -1.068000000     3.060000000    -3.158000000
C    -0.003000000     2.409000000    -3.732000000
H    -0.105000000     1.639000000    -4.492000000
C     1.304000000     2.771000000    -3.323000000
O     2.322000000     2.051000000    -3.732000000
C     2.874000000     1.075000000    -2.994000000
C     3.115000000    -0.229000000    -3.815000000
C     2.232000000    -0.629000000    -4.838000000
H     1.367000000    -0.033000000    -5.117000000
C     4.121000000    -1.128000000    -3.458000000
H     4.702000000    -0.772000000    -2.611000000
O     4.099000000     1.572000000    -2.447000000
H     2.202000000     0.858000000    -2.150000000
C     1.557000000     3.948000000    -2.503000000
C     2.970000000     4.390000000    -2.168000000
H     3.017000000     5.404000000    -1.766000000
H     3.730000000     4.317000000    -2.949000000
C     3.535000000     3.482000000    -1.022000000
C     4.131000000     2.228000000    -1.228000000
C     4.458000000     1.376000000    -0.196000000
H     4.790000000     0.395000000    -0.526000000
C     4.299000000     1.733000000     1.134000000
O     4.490000000     0.793000000     2.113000000
C     3.292000000     0.136000000     2.576000000
H     2.424000000     0.377000000     1.945000000
C     3.503000000    -1.346000000     2.745000000
C     2.996000000    -2.003000000     3.887000000
H     2.482000000    -1.404000000     4.634000000
C     4.016000000    -2.103000000     1.696000000
H     4.463000000    -1.610000000     0.837000000
C     4.088000000    -3.475000000     1.833000000
O     4.786000000    -4.245000000     0.843000000
C     3.464000000    -4.085000000     2.948000000
H     3.388000000    -5.167000000     3.020000000
C     2.895000000    -3.329000000     4.029000000
O     2.221000000    -3.981000000     5.043000000
C     1.212000000    -3.496000000     5.802000000
C    -0.126000000    -3.657000000     5.364000000
H    -0.281000000    -3.969000000     4.335000000
C     1.435000000    -2.940000000     7.056000000
H     2.447000000    -2.724000000     7.386000000
C     0.323000000    -2.769000000     7.933000000
H     0.616000000    -2.375000000     8.902000000
C    -1.006000000    -2.968000000     7.532000000
H    -1.782000000    -2.639000000     8.218000000
C    -1.245000000    -3.358000000     6.196000000
O    -2.498000000    -3.473000000     5.662000000
C    -3.078000000    -2.547000000     4.914000000
C    -4.180000000    -2.989000000     4.226000000
H    -4.533000000    -4.006000000     4.376000000
C    -4.713000000    -2.159000000     3.201000000
O    -5.836000000    -2.609000000     2.460000000
C    -6.487000000    -1.850000000     1.531000000
C    -6.345000000    -2.171000000     0.167000000
H    -5.785000000    -3.046000000    -0.151000000
C    -7.327000000    -0.751000000     1.869000000
H    -7.442000000    -0.601000000     2.940000000
C    -7.848000000     0.081000000     0.914000000
H    -8.444000000     0.913000000     1.282000000
C    -7.532000000    -0.167000000    -0.419000000
H    -7.993000000     0.449000000    -1.187000000
C    -6.786000000    -1.285000000    -0.782000000
O    -6.631000000    -1.525000000    -2.095000000
C    -5.507000000    -1.019000000    -2.772000000
C    -4.942000000    -1.821000000    -3.815000000
H    -5.317000000    -2.810000000    -4.065000000
C    -3.797000000    -1.380000000    -4.402000000
O    -3.059000000    -2.082000000    -5.349000000
C    -2.029000000    -1.638000000    -6.157000000
C    -0.768000000    -2.139000000    -6.017000000
H    -0.596000000    -2.938000000    -5.301000000
C    -2.301000000    -0.605000000    -7.028000000
H    -3.295000000    -0.165000000    -7.062000000
C    -1.387000000    -0.115000000    -7.924000000
H    -1.581000000     0.653000000    -8.668000000
C     0.000000000    -0.558000000    -7.722000000
H     0.796000000    -0.171000000    -8.352000000
C     0.242000000    -1.572000000    -6.805000000
O     1.515000000    -2.055000000    -6.564000000
C     2.423000000    -1.808000000    -5.585000000
C     3.455000000    -2.659000000    -5.287000000
H     3.457000000    -3.569000000    -5.881000000
C     4.275000000    -2.307000000    -4.209000000
O     5.261000000    -3.193000000    -3.805000000
C     5.788000000    -3.503000000    -2.583000000
C     7.167000000    -3.861000000    -2.525000000
H     7.716000000    -4.107000000    -3.431000000
C     7.710000000    -4.168000000    -1.275000000
H     8.739000000    -4.484000000    -1.123000000
C     6.914000000    -4.123000000    -0.140000000
H     7.364000000    -4.534000000     0.761000000
C     5.522000000    -3.858000000    -0.266000000
C     4.947000000    -3.522000000    -1.473000000
H     3.867000000    -3.511000000    -1.598000000
C     0.373000000    -2.053000000     0.754000000
H     0.512000000    -2.910000000     1.408000000
C    -0.093000000    -0.914000000     1.316000000
H    -0.421000000    -0.844000000     2.350000000
C    -0.137000000     0.223000000     0.584000000
H    -0.413000000     1.107000000     1.110000000
C     0.119000000     0.161000000    -0.784000000
H     0.004000000     1.005000000    -1.460000000
C     0.494000000    -1.072000000    -1.392000000
H     0.527000000    -1.132000000    -2.477000000
C     0.636000000    -2.229000000    -0.637000000
C     0.965000000    -3.616000000    -1.140000000
O     1.026000000    -3.802000000    -2.364000000
O     0.977000000    -4.561000000    -0.343000000
O    -2.222000000    -5.571000000    -5.714000000
H    -2.242000000    -4.925000000    -5.008000000
H    -1.346000000    -5.953000000    -5.665000000
O     3.092000000    -8.867000000     1.294000000
H     3.246000000    -8.018000000     0.881000000
H     2.354000000    -8.716000000     1.884000000
O     2.405000000    -5.754000000    -2.995000000
H     2.679000000    -6.146000000    -2.166000000
H     1.890000000    -4.989000000    -2.740000000
O    -2.519000000    -2.042000000    -0.090000000
H    -1.654000000    -1.640000000    -0.009000000
H    -2.631000000    -2.534000000     0.724000000
O    -2.278000000    -4.436000000     1.790000000
H    -1.329000000    -4.399000000     1.909000000
H    -2.549000000    -5.221000000     2.266000000
O     3.127000000    -6.370000000    -0.046000000
H     3.924000000    -5.951000000     0.277000000
H     2.451000000    -5.699000000     0.039000000
O    -1.539000000    -4.012000000    -3.198000000
H    -0.735000000    -4.253000000    -2.736000000
H    -1.349000000    -3.153000000    -3.575000000
O    -0.158000000    -8.861000000    -4.501000000
H     0.042000000    -7.960000000    -4.755000000
H     0.643000000    -9.348000000    -4.697000000
O     4.874000000    -8.041000000    -2.045000000
H     5.795000000    -7.891000000    -2.259000000
H     4.590000000    -7.230000000    -1.624000000
O    -2.412000000    -7.511000000     2.178000000
H    -1.886000000    -8.219000000     1.805000000
H    -3.013000000    -7.951000000     2.779000000
O     4.238000000    -6.062000000    -5.555000000
H     3.356000000    -5.783000000    -5.310000000
H     4.719000000    -6.089000000    -4.728000000
O    -3.403000000    -4.307000000    -1.319000000
H    -2.864000000    -4.271000000    -2.109000000
H    -3.212000000    -3.488000000    -0.862000000
O    -0.973000000    -6.541000000    -0.812000000
H    -0.338000000    -5.826000000    -0.847000000
H    -1.449000000    -6.399000000     0.006000000
O     0.384000000    -5.449000000     2.066000000
H     0.741000000    -6.337000000     2.081000000
H     0.691000000    -5.082000000     1.237000000
O    -3.577000000    -7.962000000    -2.248000000
H    -3.627000000    -7.917000000    -3.202000000
H    -2.702000000    -7.635000000    -2.038000000
O     0.749000000    -6.526000000    -5.223000000
H     1.406000000    -6.233000000    -4.591000000
H     1.003000000    -6.107000000    -6.045000000
O    -5.192000000    -5.585000000     0.796000000
H    -5.118000000    -4.973000000     1.529000000
H    -4.499000000    -5.319000000     0.192000000
O    -0.766000000    -8.925000000    -1.895000000
H    -0.628000000    -8.073000000    -1.482000000
H    -0.539000000    -8.785000000    -2.815000000
O     1.641000000    -5.042000000    -7.130000000
H     2.453000000    -5.422000000    -7.466000000
H     1.367000000    -4.423000000    -7.807000000
