215
-1436.50749
C    -3.755000000    -0.083000000     2.538000000
H    -4.195000000     0.480000000     1.719000000
C    -2.779000000     0.329000000     3.418000000
C    -2.462000000    -0.411000000     4.549000000
H    -1.697000000    -0.055000000     5.235000000
C    -2.005000000     1.666000000     3.214000000
O    -2.873000000     2.753000000     2.791000000
H    -1.407000000     1.355000000     2.345000000
O    -1.080000000     2.124000000     4.277000000
C     0.132000000     2.486000000     3.813000000
C     1.130000000     1.500000000     4.030000000
H     0.868000000     0.537000000     4.461000000
C     2.421000000     1.787000000     3.571000000
O     3.272000000     0.733000000     3.659000000
C     2.737000000     3.006000000     2.995000000
C     4.134000000     3.172000000     2.323000000
H     4.509000000     4.193000000     2.233000000
C     4.151000000     2.504000000     1.001000000
C     3.816000000     3.228000000    -0.160000000
H     3.650000000     4.291000000    -0.008000000
H     4.933000000     2.683000000     2.884000000
C     1.733000000     3.998000000     2.819000000
H     1.932000000     4.898000000     2.244000000
C     0.393000000     3.731000000     3.139000000
C    -0.709000000     4.674000000     2.798000000
H    -0.324000000     5.670000000     2.572000000
H    -1.365000000     4.725000000     3.669000000
C    -1.479000000     4.255000000     1.561000000
C    -1.117000000     4.730000000     0.326000000
H    -0.235000000     5.362000000     0.259000000
C    -2.603000000     3.459000000     1.671000000
C    -3.323000000     3.118000000     0.563000000
H    -4.190000000     2.463000000     0.583000000
C    -2.902000000     3.572000000    -0.730000000
O    -3.534000000     3.059000000    -1.850000000
C    -2.937000000     2.048000000    -2.744000000
C    -3.999000000     1.174000000    -3.362000000
C    -3.774000000     0.477000000    -4.565000000
H    -2.820000000     0.721000000    -5.027000000
C    -5.193000000     0.897000000    -2.673000000
H    -5.538000000     1.466000000    -1.814000000
O    -2.160000000     2.731000000    -3.803000000
H    -2.271000000     1.455000000    -2.100000000
C    -1.840000000     4.424000000    -0.847000000
C    -1.302000000     4.952000000    -2.113000000
H    -0.871000000     5.950000000    -2.016000000
H    -2.110000000     5.140000000    -2.823000000
C    -0.421000000     3.949000000    -2.786000000
C     0.900000000     4.065000000    -2.595000000
H     1.255000000     4.981000000    -2.130000000
C    -0.864000000     2.870000000    -3.528000000
C    -0.006000000     1.898000000    -3.982000000
H    -0.404000000     1.018000000    -4.481000000
C     1.357000000     2.010000000    -3.755000000
O     2.252000000     0.960000000    -4.046000000
C     2.743000000     0.125000000    -2.964000000
C     2.491000000    -1.325000000    -3.284000000
C     1.288000000    -1.712000000    -3.850000000
H     0.570000000    -0.935000000    -4.102000000
C     3.469000000    -2.274000000    -2.913000000
H     4.420000000    -1.908000000    -2.534000000
O     4.115000000     0.539000000    -2.667000000
H     2.092000000     0.329000000    -2.102000000
C     1.806000000     3.114000000    -3.039000000
C     3.298000000     3.295000000    -2.656000000
H     3.490000000     4.360000000    -2.510000000
H     3.921000000     2.922000000    -3.471000000
C     3.762000000     2.628000000    -1.418000000
C     4.165000000     1.309000000    -1.482000000
C     4.655000000     0.621000000    -0.364000000
H     4.994000000    -0.406000000    -0.473000000
C     4.480000000     1.165000000     0.872000000
O     4.771000000     0.393000000     1.904000000
C     3.561000000    -0.084000000     2.617000000
H     2.775000000     0.161000000     1.888000000
C     3.549000000    -1.548000000     3.084000000
C     2.705000000    -1.967000000     4.090000000
H     2.125000000    -1.268000000     4.687000000
C     4.362000000    -2.448000000     2.406000000
H     5.124000000    -2.137000000     1.696000000
C     4.130000000    -3.851000000     2.546000000
O     4.945000000    -4.708000000     1.871000000
C     3.290000000    -4.287000000     3.597000000
H     3.260000000    -5.325000000     3.918000000
C     2.618000000    -3.320000000     4.383000000
O     1.822000000    -3.910000000     5.312000000
C     0.933000000    -3.168000000     6.067000000
C    -0.311000000    -3.034000000     5.589000000
H    -0.526000000    -3.414000000     4.594000000
C     1.298000000    -2.494000000     7.257000000
H     2.265000000    -2.573000000     7.748000000
C     0.346000000    -1.785000000     7.934000000
H     0.693000000    -1.300000000     8.843000000
C    -0.948000000    -1.853000000     7.520000000
H    -1.761000000    -1.329000000     8.017000000
C    -1.300000000    -2.377000000     6.256000000
O    -2.618000000    -2.398000000     5.874000000
C    -2.989000000    -1.673000000     4.731000000
C    -3.986000000    -2.078000000     3.823000000
H    -4.447000000    -3.022000000     4.101000000
C    -4.306000000    -1.330000000     2.723000000
O    -5.392000000    -1.825000000     2.020000000
C    -6.125000000    -1.039000000     1.176000000
C    -6.032000000    -1.180000000    -0.204000000
H    -5.346000000    -1.863000000    -0.699000000
C    -6.895000000    -0.061000000     1.783000000
H    -6.969000000     0.183000000     2.840000000
C    -7.694000000     0.765000000     0.964000000
H    -8.276000000     1.486000000     1.533000000
C    -7.750000000     0.516000000    -0.413000000
H    -8.358000000     1.121000000    -1.080000000
C    -6.970000000    -0.472000000    -0.989000000
O    -7.066000000    -0.564000000    -2.373000000
C    -6.015000000    -0.106000000    -3.115000000
C    -5.665000000    -0.842000000    -4.236000000
H    -6.373000000    -1.598000000    -4.567000000
C    -4.580000000    -0.556000000    -4.939000000
O    -4.246000000    -1.448000000    -5.883000000
C    -2.932000000    -1.638000000    -6.282000000
C    -2.181000000    -2.433000000    -5.425000000
H    -2.715000000    -2.964000000    -4.641000000
C    -2.422000000    -0.959000000    -7.390000000
H    -2.976000000    -0.347000000    -8.097000000
C    -1.058000000    -1.068000000    -7.535000000
H    -0.590000000    -0.435000000    -8.284000000
C    -0.261000000    -1.812000000    -6.694000000
H     0.820000000    -1.877000000    -6.784000000
C    -0.836000000    -2.573000000    -5.706000000
O    -0.105000000    -3.409000000    -4.861000000
C     1.006000000    -3.014000000    -4.193000000
C     1.995000000    -3.941000000    -3.873000000
H     1.907000000    -5.015000000    -4.012000000
C     3.188000000    -3.582000000    -3.193000000
O     4.138000000    -4.543000000    -2.830000000
C     4.989000000    -4.511000000    -1.752000000
C     6.349000000    -4.645000000    -2.022000000
H     6.739000000    -4.803000000    -3.025000000
C     7.196000000    -4.564000000    -0.942000000
H     8.269000000    -4.565000000    -1.112000000
C     6.688000000    -4.653000000     0.356000000
H     7.307000000    -4.681000000     1.249000000
C     5.345000000    -4.545000000     0.570000000
C     4.434000000    -4.444000000    -0.475000000
H     3.355000000    -4.448000000    -0.348000000
C    -2.514000000    -2.300000000    -1.519000000
H    -3.300000000    -2.601000000    -2.207000000
C    -1.655000000    -1.248000000    -1.838000000
H    -1.650000000    -0.695000000    -2.773000000
C    -0.815000000    -0.725000000    -0.907000000
H    -0.197000000     0.162000000    -1.081000000
C    -0.767000000    -1.249000000     0.405000000
H    -0.033000000    -0.794000000     1.065000000
C    -1.581000000    -2.310000000     0.730000000
H    -1.549000000    -2.650000000     1.762000000
C    -2.447000000    -2.873000000    -0.233000000
C    -3.303000000    -4.091000000    -0.028000000
O    -2.890000000    -4.854000000     0.814000000
O    -4.266000000    -4.324000000    -0.671000000
O    -1.521000000    -9.545000000    -3.341000000
H    -0.775000000   -10.131000000    -3.467000000
H    -1.172000000    -8.821000000    -2.821000000
O    -1.501000000   -10.362000000     2.523000000
H    -2.203000000   -10.922000000     2.193000000
H    -1.764000000    -9.476000000     2.273000000
O     0.148000000    -5.529000000    -0.624000000
H     0.398000000    -5.555000000     0.300000000
H    -0.371000000    -4.729000000    -0.710000000
O    -6.833000000    -4.218000000    -0.313000000
H    -5.879000000    -4.145000000    -0.341000000
H    -7.088000000    -4.379000000    -1.221000000
O    -4.595000000    -6.037000000     2.236000000
H    -3.988000000    -5.624000000     1.623000000
H    -4.141000000    -6.010000000     3.079000000
O    -2.426000000    -7.935000000     4.613000000
H    -2.261000000    -7.228000000     3.988000000
H    -3.332000000    -7.803000000     4.889000000
O    -0.327000000    -9.674000000    -0.237000000
H    -1.212000000    -9.438000000     0.040000000
H     0.240000000    -9.049000000     0.214000000
O    -4.050000000    -6.637000000    -2.094000000
H    -4.078000000    -6.004000000    -1.376000000
H    -3.118000000    -6.730000000    -2.294000000
O    -3.211000000    -5.144000000     5.049000000
H    -3.331000000    -4.366000000     5.594000000
H    -3.852000000    -5.771000000     5.383000000
O    -5.535000000    -5.906000000    -4.429000000
H    -6.222000000    -5.301000000    -4.151000000
H    -5.089000000    -6.150000000    -3.617000000
O    -0.234000000    -6.562000000    -2.971000000
H     0.633000000    -6.905000000    -3.187000000
H    -0.143000000    -6.220000000    -2.082000000
O    -7.904000000    -3.696000000     2.413000000
H    -7.951000000    -4.007000000     1.509000000
H    -7.009000000    -3.895000000     2.687000000
O     1.818000000    -7.980000000     0.631000000
H     2.318000000    -8.120000000     1.436000000
H     1.565000000    -7.058000000     0.664000000
O    -1.371000000    -5.275000000     2.934000000
H    -1.945000000    -5.206000000     3.697000000
H    -1.956000000    -5.167000000     2.184000000
O    -2.628000000    -8.236000000     1.161000000
H    -2.410000000    -7.398000000     0.754000000
H    -3.583000000    -8.230000000     1.226000000
O     1.064000000    -5.374000000     1.909000000
H     0.292000000    -5.457000000     2.469000000
H     1.261000000    -4.437000000     1.910000000
O    -5.422000000    -9.260000000    -2.302000000
H    -6.329000000    -8.965000000    -2.227000000
H    -4.911000000    -8.453000000    -2.357000000
O    -6.943000000    -6.744000000     1.220000000
H    -7.022000000    -5.986000000     0.640000000
H    -6.282000000    -6.486000000     1.863000000
O    -7.526000000    -4.435000000    -3.534000000
H    -8.260000000    -5.037000000    -3.410000000
H    -7.934000000    -3.610000000    -3.795000000
