215
-1445.20681
C    -4.411000000    -0.220000000     3.370000000
H    -4.827000000     0.665000000     2.896000000
C    -3.041000000    -0.265000000     3.697000000
C    -2.437000000    -1.378000000     4.162000000
H    -1.413000000    -1.249000000     4.501000000
C    -2.287000000     1.050000000     3.468000000
O    -3.108000000     2.238000000     3.488000000
H    -1.707000000     1.023000000     2.534000000
O    -1.373000000     1.199000000     4.571000000
C    -0.057000000     1.636000000     4.329000000
C     0.900000000     0.632000000     4.396000000
H     0.620000000    -0.343000000     4.786000000
C     2.210000000     0.838000000     3.922000000
O     3.027000000    -0.249000000     3.798000000
C     2.574000000     2.152000000     3.488000000
C     3.997000000     2.508000000     2.965000000
H     4.044000000     3.581000000     3.163000000
C     4.165000000     2.164000000     1.450000000
C     3.790000000     3.158000000     0.518000000
H     3.492000000     4.135000000     0.891000000
H     4.723000000     2.125000000     3.684000000
C     1.572000000     3.132000000     3.451000000
H     1.918000000     4.130000000     3.195000000
C     0.293000000     2.895000000     3.899000000
C    -0.825000000     3.914000000     3.839000000
H    -0.328000000     4.874000000     3.995000000
H    -1.500000000     3.800000000     4.689000000
C    -1.683000000     3.902000000     2.593000000
C    -1.203000000     4.637000000     1.448000000
H    -0.339000000     5.290000000     1.540000000
C    -2.795000000     3.148000000     2.533000000
C    -3.451000000     2.981000000     1.292000000
H    -4.295000000     2.320000000     1.113000000
C    -2.967000000     3.597000000     0.175000000
O    -3.425000000     3.367000000    -1.033000000
C    -2.802000000     2.386000000    -1.954000000
C    -3.808000000     1.395000000    -2.601000000
C    -3.287000000     0.534000000    -3.550000000
H    -2.371000000     0.896000000    -4.009000000
C    -5.018000000     1.038000000    -1.992000000
H    -5.355000000     1.693000000    -1.193000000
O    -1.986000000     3.023000000    -2.919000000
H    -2.095000000     1.697000000    -1.468000000
C    -1.869000000     4.446000000     0.256000000
C    -1.250000000     5.188000000    -1.022000000
H    -0.637000000     6.049000000    -0.747000000
H    -2.069000000     5.453000000    -1.694000000
C    -0.285000000     4.295000000    -1.713000000
C     1.053000000     4.420000000    -1.494000000
H     1.470000000     5.212000000    -0.878000000
C    -0.699000000     3.285000000    -2.633000000
C     0.163000000     2.474000000    -3.312000000
H    -0.171000000     1.717000000    -4.018000000
C     1.504000000     2.808000000    -3.196000000
O     2.344000000     2.047000000    -3.918000000
C     2.862000000     0.924000000    -3.273000000
C     3.013000000    -0.312000000    -4.206000000
C     2.027000000    -0.517000000    -5.159000000
H     1.344000000     0.279000000    -5.443000000
C     3.899000000    -1.282000000    -3.849000000
H     4.599000000    -1.135000000    -3.030000000
O     4.087000000     1.219000000    -2.671000000
H     2.166000000     0.590000000    -2.490000000
C     1.946000000     3.716000000    -2.195000000
C     3.426000000     3.932000000    -1.827000000
H     3.533000000     4.944000000    -1.431000000
H     4.082000000     3.892000000    -2.699000000
C     3.836000000     2.864000000    -0.829000000
C     4.139000000     1.550000000    -1.300000000
C     4.390000000     0.553000000    -0.359000000
H     4.482000000    -0.463000000    -0.733000000
C     4.420000000     0.861000000     1.009000000
O     4.458000000    -0.127000000     1.954000000
C     3.203000000    -0.707000000     2.426000000
H     2.410000000    -0.356000000     1.750000000
C     3.395000000    -2.247000000     2.455000000
C     2.576000000    -3.044000000     3.212000000
H     1.902000000    -2.490000000     3.861000000
C     4.299000000    -2.837000000     1.565000000
H     4.873000000    -2.198000000     0.898000000
C     4.309000000    -4.236000000     1.371000000
O     5.331000000    -4.795000000     0.582000000
C     3.396000000    -5.013000000     2.053000000
H     3.362000000    -6.096000000     1.962000000
C     2.530000000    -4.412000000     2.999000000
O     1.547000000    -5.214000000     3.620000000
C     0.726000000    -4.779000000     4.542000000
C    -0.567000000    -4.509000000     4.181000000
H    -0.978000000    -4.613000000     3.180000000
C     1.257000000    -4.445000000     5.788000000
H     2.294000000    -4.674000000     6.019000000
C     0.467000000    -3.894000000     6.810000000
H     0.895000000    -3.630000000     7.773000000
C    -0.894000000    -3.727000000     6.475000000
H    -1.526000000    -3.205000000     7.190000000
C    -1.394000000    -3.974000000     5.208000000
O    -2.754000000    -3.713000000     4.921000000
C    -3.255000000    -2.560000000     4.281000000
C    -4.578000000    -2.527000000     3.965000000
H    -5.005000000    -3.523000000     3.882000000
C    -5.142000000    -1.399000000     3.394000000
O    -6.417000000    -1.551000000     2.797000000
C    -6.859000000    -0.622000000     1.881000000
C    -6.791000000    -0.978000000     0.573000000
H    -6.363000000    -1.929000000     0.267000000
C    -7.418000000     0.564000000     2.202000000
H    -7.490000000     0.762000000     3.268000000
C    -7.873000000     1.463000000     1.225000000
H    -8.479000000     2.343000000     1.429000000
C    -7.737000000     1.123000000    -0.150000000
H    -8.060000000     1.792000000    -0.944000000
C    -7.151000000    -0.106000000    -0.427000000
O    -6.886000000    -0.423000000    -1.748000000
C    -5.750000000    -0.136000000    -2.346000000
C    -5.274000000    -0.932000000    -3.378000000
H    -5.832000000    -1.809000000    -3.696000000
C    -4.054000000    -0.596000000    -4.001000000
O    -3.520000000    -1.441000000    -4.896000000
C    -2.544000000    -1.090000000    -5.784000000
C    -1.285000000    -1.675000000    -5.725000000
H    -1.047000000    -2.342000000    -4.900000000
C    -2.859000000    -0.254000000    -6.896000000
H    -3.859000000     0.171000000    -6.909000000
C    -1.962000000    -0.075000000    -7.956000000
H    -2.252000000     0.593000000    -8.763000000
C    -0.719000000    -0.684000000    -7.847000000
H    -0.028000000    -0.614000000    -8.683000000
C    -0.294000000    -1.422000000    -6.732000000
O     0.954000000    -2.053000000    -6.697000000
C     1.862000000    -1.843000000    -5.696000000
C     2.733000000    -2.817000000    -5.273000000
H     2.733000000    -3.757000000    -5.819000000
C     3.752000000    -2.543000000    -4.370000000
O     4.645000000    -3.552000000    -3.974000000
C     5.424000000    -3.498000000    -2.863000000
C     6.625000000    -2.843000000    -2.812000000
H     6.976000000    -2.257000000    -3.657000000
C     7.439000000    -2.819000000    -1.627000000
H     8.447000000    -2.419000000    -1.706000000
C     6.955000000    -3.471000000    -0.446000000
H     7.499000000    -3.466000000     0.495000000
C     5.734000000    -4.174000000    -0.536000000
C     4.951000000    -4.150000000    -1.711000000
H     3.958000000    -4.578000000    -1.819000000
C    -1.430000000    -2.212000000     0.791000000
H    -2.273000000    -2.754000000     1.212000000
C    -1.633000000    -0.834000000     0.671000000
H    -2.486000000    -0.303000000     1.087000000
C    -0.598000000     0.008000000     0.120000000
H    -0.582000000     1.110000000     0.204000000
C     0.584000000    -0.555000000    -0.351000000
H     1.400000000    -0.027000000    -0.839000000
C     0.703000000    -1.924000000    -0.194000000
H     1.586000000    -2.462000000    -0.530000000
C    -0.230000000    -2.802000000     0.338000000
C     0.029000000    -4.282000000     0.264000000
O     1.045000000    -4.712000000    -0.254000000
O    -0.870000000    -5.048000000     0.674000000
O     3.973000000    -7.879000000    -1.754000000
H     4.607000000    -7.899000000    -2.471000000
H     4.502000000    -7.723000000    -0.971000000
O     1.605000000    -6.296000000    -2.240000000
H     2.413000000    -6.707000000    -1.933000000
H     1.307000000    -5.770000000    -1.498000000
O     0.660000000    -8.772000000    -3.551000000
H     1.420000000    -9.115000000    -4.020000000
H     0.957000000    -7.936000000    -3.193000000
O    -5.046000000    -4.026000000     0.611000000
H    -4.779000000    -3.423000000     1.305000000
H    -4.736000000    -4.882000000     0.906000000
O    -3.178000000    -5.660000000     1.753000000
H    -2.407000000    -5.412000000     1.242000000
H    -2.909000000    -6.451000000     2.221000000
O    -0.762000000    -7.740000000     4.424000000
H    -0.204000000    -7.175000000     3.890000000
H    -0.691000000    -8.602000000     4.016000000
O     2.276000000    -8.996000000     0.191000000
H     2.672000000    -8.253000000    -0.265000000
H     3.019000000    -9.480000000     0.551000000
O    -4.018000000    -3.812000000    -2.819000000
H    -4.021000000    -3.810000000    -1.862000000
H    -3.173000000    -3.429000000    -3.057000000
O    -3.428000000    -7.521000000     3.710000000
H    -2.611000000    -7.445000000     4.203000000
H    -4.073000000    -7.053000000     4.241000000
O     3.111000000    -6.635000000    -4.847000000
H     3.878000000    -7.166000000    -4.630000000
H     2.923000000    -6.147000000    -4.045000000
O    -4.818000000    -6.237000000    -4.048000000
H    -4.101000000    -6.848000000    -3.877000000
H    -4.513000000    -5.403000000    -3.689000000
O    -1.379000000    -3.088000000    -2.578000000
H    -1.144000000    -3.971000000    -2.294000000
H    -1.395000000    -2.573000000    -1.772000000
O    -0.055000000    -7.212000000     1.918000000
H     0.896000000    -7.229000000     2.018000000
H    -0.224000000    -6.456000000     1.356000000
O    -0.981000000    -9.485000000     0.739000000
H    -0.635000000    -8.708000000     1.179000000
H    -0.963000000    -9.261000000    -0.191000000
O     3.525000000    -8.399000000     3.557000000
H     2.965000000    -7.869000000     4.124000000
H     3.495000000    -9.275000000     3.941000000
O     0.284000000    -6.018000000    -6.223000000
H     0.993000000    -5.795000000    -5.619000000
H     0.592000000    -5.715000000    -7.077000000
O    -1.162000000    -7.152000000    -1.015000000
H    -1.106000000    -6.447000000    -0.369000000
H    -0.276000000    -7.221000000    -1.370000000
O    -4.574000000    -8.261000000     1.329000000
H    -4.144000000    -7.740000000     2.007000000
H    -4.381000000    -9.169000000     1.566000000
O    -3.351000000    -8.196000000    -2.576000000
H    -2.788000000    -7.601000000    -2.081000000
H    -2.997000000    -9.067000000    -2.395000000
