215
-1472.70600
C    -4.223000000     0.885000000     2.179000000
H    -4.358000000     1.409000000     1.236000000
C    -3.152000000     1.235000000     3.006000000
C    -3.030000000     0.531000000     4.219000000
H    -2.184000000     0.799000000     4.847000000
C    -2.044000000     2.199000000     2.614000000
O    -2.627000000     3.424000000     2.129000000
H    -1.415000000     1.759000000     1.826000000
O    -1.251000000     2.586000000     3.780000000
C     0.102000000     2.811000000     3.617000000
C     0.874000000     1.745000000     3.977000000
H     0.448000000     0.911000000     4.528000000
C     2.238000000     1.749000000     3.673000000
O     2.964000000     0.627000000     4.005000000
C     2.865000000     2.797000000     3.012000000
C     4.286000000     2.658000000     2.486000000
H     4.637000000     3.645000000     2.179000000
C     4.393000000     1.830000000     1.289000000
C     4.230000000     2.523000000     0.051000000
H     4.155000000     3.608000000     0.064000000
H     4.912000000     2.265000000     3.290000000
C     2.037000000     3.839000000     2.663000000
H     2.484000000     4.535000000     1.958000000
C     0.647000000     3.870000000     2.914000000
C    -0.295000000     5.015000000     2.401000000
H     0.323000000     5.915000000     2.422000000
H    -1.085000000     5.220000000     3.126000000
C    -0.979000000     4.701000000     0.998000000
C    -0.353000000     5.029000000    -0.227000000
H     0.586000000     5.576000000    -0.232000000
C    -2.132000000     3.926000000     0.963000000
C    -2.602000000     3.441000000    -0.240000000
H    -3.495000000     2.822000000    -0.266000000
C    -2.038000000     3.867000000    -1.443000000
O    -2.548000000     3.404000000    -2.614000000
C    -1.969000000     2.171000000    -3.179000000
C    -2.956000000     1.149000000    -3.631000000
C    -2.608000000     0.123000000    -4.410000000
H    -1.609000000     0.147000000    -4.839000000
C    -4.220000000     1.141000000    -3.115000000
H    -4.575000000     1.963000000    -2.499000000
O    -1.149000000     2.601000000    -4.276000000
H    -1.349000000     1.706000000    -2.400000000
C    -0.852000000     4.655000000    -1.467000000
C    -0.083000000     4.909000000    -2.791000000
H     0.619000000     5.744000000    -2.743000000
H    -0.781000000     5.087000000    -3.611000000
C     0.686000000     3.708000000    -3.154000000
C     1.990000000     3.570000000    -2.653000000
H     2.325000000     4.136000000    -1.788000000
C     0.180000000     2.708000000    -3.994000000
C     1.004000000     1.620000000    -4.214000000
H     0.592000000     0.792000000    -4.786000000
C     2.294000000     1.508000000    -3.716000000
O     2.931000000     0.291000000    -3.873000000
C     3.059000000    -0.620000000    -2.783000000
C     2.748000000    -2.074000000    -3.263000000
C     2.072000000    -2.387000000    -4.421000000
H     1.774000000    -1.661000000    -5.172000000
C     3.051000000    -3.107000000    -2.336000000
H     3.618000000    -2.903000000    -1.432000000
O     4.367000000    -0.482000000    -2.173000000
H     2.319000000    -0.314000000    -2.029000000
C     2.844000000     2.518000000    -2.983000000
C     4.205000000     2.510000000    -2.412000000
H     4.559000000     3.541000000    -2.350000000
H     4.861000000     1.917000000    -3.054000000
C     4.364000000     1.801000000    -1.127000000
C     4.433000000     0.416000000    -1.144000000
C     4.455000000    -0.237000000     0.096000000
H     4.469000000    -1.324000000     0.112000000
C     4.504000000     0.412000000     1.302000000
O     4.444000000    -0.305000000     2.502000000
C     3.162000000    -0.393000000     3.066000000
H     2.446000000    -0.349000000     2.232000000
C     2.841000000    -1.736000000     3.701000000
C     2.086000000    -1.810000000     4.869000000
H     1.794000000    -0.856000000     5.299000000
C     3.342000000    -2.953000000     3.107000000
H     3.913000000    -2.972000000     2.183000000
C     2.780000000    -4.150000000     3.575000000
O     3.144000000    -5.363000000     2.994000000
C     1.858000000    -4.162000000     4.567000000
H     1.441000000    -5.133000000     4.820000000
C     1.495000000    -3.021000000     5.260000000
O     0.725000000    -3.054000000     6.429000000
C    -0.257000000    -2.109000000     6.716000000
C    -1.516000000    -2.221000000     6.156000000
H    -1.578000000    -3.037000000     5.440000000
C     0.034000000    -1.062000000     7.647000000
H     1.032000000    -0.997000000     8.073000000
C    -0.978000000    -0.153000000     8.012000000
H    -0.767000000     0.596000000     8.771000000
C    -2.226000000    -0.295000000     7.457000000
H    -3.029000000     0.389000000     7.720000000
C    -2.462000000    -1.331000000     6.477000000
O    -3.586000000    -1.300000000     5.681000000
C    -3.862000000    -0.547000000     4.543000000
C    -4.971000000    -0.787000000     3.793000000
H    -5.649000000    -1.586000000     4.085000000
C    -5.137000000    -0.079000000     2.618000000
O    -6.244000000    -0.387000000     1.838000000
C    -6.632000000     0.378000000     0.694000000
C    -6.242000000     0.079000000    -0.619000000
H    -5.526000000    -0.728000000    -0.750000000
C    -7.620000000     1.344000000     0.912000000
H    -8.080000000     1.539000000     1.877000000
C    -8.140000000     2.020000000    -0.164000000
H    -8.956000000     2.731000000    -0.062000000
C    -7.739000000     1.685000000    -1.506000000
H    -8.400000000     2.152000000    -2.231000000
C    -6.803000000     0.685000000    -1.700000000
O    -6.513000000     0.154000000    -2.953000000
C    -5.178000000     0.107000000    -3.379000000
C    -4.789000000    -0.901000000    -4.180000000
H    -5.443000000    -1.760000000    -4.311000000
C    -3.502000000    -0.931000000    -4.676000000
O    -3.153000000    -2.054000000    -5.425000000
C    -1.985000000    -2.178000000    -6.224000000
C    -1.038000000    -3.050000000    -5.790000000
H    -1.219000000    -3.506000000    -4.820000000
C    -1.883000000    -1.622000000    -7.478000000
H    -2.575000000    -0.899000000    -7.904000000
C    -0.813000000    -2.035000000    -8.291000000
H    -0.669000000    -1.728000000    -9.324000000
C     0.226000000    -2.884000000    -7.781000000
H     1.138000000    -3.058000000    -8.347000000
C     0.124000000    -3.332000000    -6.498000000
O     1.121000000    -4.070000000    -5.974000000
C     1.862000000    -3.776000000    -4.812000000
C     2.343000000    -4.772000000    -3.946000000
H     2.226000000    -5.825000000    -4.189000000
C     2.847000000    -4.438000000    -2.675000000
O     3.320000000    -5.465000000    -1.832000000
C     3.972000000    -5.275000000    -0.612000000
C     5.385000000    -5.297000000    -0.529000000
H     5.941000000    -5.146000000    -1.451000000
C     6.041000000    -5.284000000     0.753000000
H     7.121000000    -5.188000000     0.825000000
C     5.315000000    -5.420000000     1.906000000
H     5.836000000    -5.507000000     2.856000000
C     3.876000000    -5.489000000     1.799000000
C     3.219000000    -5.461000000     0.582000000
H     2.146000000    -5.549000000     0.432000000
C    -1.619000000    -1.339000000    -1.473000000
H    -1.990000000    -1.668000000    -2.441000000
C    -0.533000000    -0.487000000    -1.569000000
H    -0.143000000    -0.191000000    -2.539000000
C    -0.078000000     0.076000000    -0.371000000
H     0.793000000     0.788000000    -0.440000000
C    -0.658000000    -0.289000000     0.843000000
H    -0.104000000     0.051000000     1.714000000
C    -1.720000000    -1.152000000     0.915000000
H    -2.148000000    -1.177000000     1.914000000
C    -2.222000000    -1.702000000    -0.264000000
C    -3.523000000    -2.417000000    -0.270000000
O    -4.151000000    -2.639000000     0.776000000
O    -4.006000000    -2.751000000    -1.327000000
O     1.009000000    -2.658000000     0.582000000
H     0.473000000    -3.177000000     1.181000000
H     0.470000000    -1.893000000     0.380000000
O    -8.772000000    -1.981000000    -0.570000000
H    -9.034000000    -1.753000000     0.322000000
H    -7.854000000    -2.240000000    -0.491000000
O    -4.969000000    -5.530000000    -5.399000000
H    -5.549000000    -4.772000000    -5.324000000
H    -4.295000000    -5.383000000    -4.736000000
O    -6.505000000    -2.818000000    -2.023000000
H    -5.553000000    -2.766000000    -1.935000000
H    -6.784000000    -1.912000000    -2.154000000
O    -6.222000000    -3.111000000     2.173000000
H    -6.910000000    -2.445000000     2.182000000
H    -5.456000000    -2.660000000     1.819000000
O    -8.420000000    -4.914000000    -0.571000000
H    -8.513000000    -5.725000000    -1.072000000
H    -7.698000000    -4.452000000    -0.996000000
O    -4.860000000    -5.277000000    -0.675000000
H    -4.884000000    -4.673000000     0.068000000
H    -4.705000000    -4.717000000    -1.435000000
O    -0.842000000    -7.018000000    -3.991000000
H    -0.964000000    -6.207000000    -3.497000000
H     0.031000000    -6.936000000    -4.374000000
O    -3.255000000    -4.639000000    -3.073000000
H    -3.611000000    -3.919000000    -2.552000000
H    -2.309000000    -4.494000000    -3.067000000
O    -4.732000000    -4.795000000     4.477000000
H    -5.524000000    -4.262000000     4.533000000
H    -5.023000000    -5.680000000     4.697000000
O    -0.436000000    -4.664000000    -2.325000000
H    -0.540000000    -4.979000000    -1.427000000
H     0.448000000    -4.297000000    -2.348000000
O    -0.531000000    -6.029000000     0.476000000
H     0.216000000    -6.571000000     0.733000000
H    -0.580000000    -5.353000000     1.152000000
O    -3.030000000    -3.469000000     3.050000000
H    -3.636000000    -4.012000000     3.554000000
H    -3.540000000    -3.181000000     2.293000000
O    -3.530000000    -8.265000000    -0.122000000
H    -4.486000000    -8.275000000    -0.077000000
H    -3.286000000    -7.384000000     0.163000000
O    -0.514000000    -4.062000000     2.627000000
H    -1.470000000    -4.028000000     2.616000000
H    -0.283000000    -3.985000000     3.553000000
O    -6.401000000    -7.420000000     2.826000000
H    -6.795000000    -6.549000000     2.781000000
H    -6.088000000    -7.588000000     1.937000000
O    -6.148000000    -7.586000000    -0.044000000
H    -6.961000000    -7.625000000    -0.547000000
H    -5.791000000    -6.718000000    -0.232000000
O    -8.301000000    -5.186000000     2.033000000
H    -8.314000000    -5.135000000     1.077000000
H    -7.608000000    -4.581000000     2.296000000
O    -7.139000000    -3.629000000    -4.991000000
H    -7.776000000    -2.989000000    -5.307000000
H    -7.372000000    -3.764000000    -4.072000000
