215
-1464.28688
C    -4.554000000     0.837000000     2.796000000
H    -4.798000000     1.591000000     2.051000000
C    -3.275000000     1.031000000     3.382000000
C    -2.752000000     0.053000000     4.276000000
H    -1.771000000     0.179000000     4.727000000
C    -2.389000000     2.171000000     2.890000000
O    -3.113000000     3.311000000     2.322000000
H    -1.681000000     1.705000000     2.188000000
O    -1.555000000     2.716000000     3.892000000
C    -0.172000000     2.929000000     3.646000000
C     0.721000000     1.956000000     3.984000000
H     0.342000000     1.025000000     4.398000000
C     2.103000000     2.003000000     3.573000000
O     2.955000000     0.976000000     3.892000000
C     2.565000000     3.124000000     2.928000000
C     3.981000000     3.259000000     2.466000000
H     4.371000000     4.279000000     2.439000000
C     4.095000000     2.464000000     1.126000000
C     3.691000000     3.069000000    -0.086000000
H     3.378000000     4.107000000    -0.015000000
H     4.693000000     2.775000000     3.138000000
C     1.575000000     4.084000000     2.471000000
H     1.988000000     4.879000000     1.855000000
C     0.210000000     3.994000000     2.877000000
C    -0.788000000     5.041000000     2.371000000
H    -0.393000000     6.056000000     2.290000000
H    -1.551000000     5.170000000     3.142000000
C    -1.478000000     4.563000000     1.123000000
C    -0.958000000     4.875000000    -0.183000000
H    -0.080000000     5.507000000    -0.291000000
C    -2.581000000     3.743000000     1.124000000
C    -3.220000000     3.398000000    -0.043000000
H    -4.044000000     2.693000000     0.027000000
C    -2.685000000     3.680000000    -1.306000000
O    -3.287000000     3.070000000    -2.353000000
C    -2.548000000     1.883000000    -2.938000000
C    -3.489000000     0.725000000    -3.347000000
C    -3.009000000    -0.210000000    -4.201000000
H    -2.016000000    -0.168000000    -4.640000000
C    -4.654000000     0.502000000    -2.641000000
H    -4.943000000     1.154000000    -1.821000000
O    -1.650000000     2.352000000    -3.985000000
H    -1.959000000     1.537000000    -2.076000000
C    -1.496000000     4.393000000    -1.369000000
C    -0.902000000     4.742000000    -2.743000000
H    -0.377000000     5.696000000    -2.661000000
H    -1.639000000     4.793000000    -3.548000000
C     0.134000000     3.712000000    -3.034000000
C     1.464000000     3.863000000    -2.710000000
H     1.727000000     4.755000000    -2.146000000
C    -0.292000000     2.535000000    -3.706000000
C     0.681000000     1.630000000    -4.152000000
H     0.350000000     0.739000000    -4.678000000
C     2.018000000     1.788000000    -3.819000000
O     2.898000000     0.782000000    -4.055000000
C     3.237000000    -0.085000000    -2.893000000
C     3.058000000    -1.515000000    -3.190000000
C     2.046000000    -1.909000000    -4.100000000
H     1.503000000    -1.153000000    -4.661000000
C     3.859000000    -2.501000000    -2.600000000
H     4.623000000    -2.142000000    -1.915000000
O     4.554000000     0.278000000    -2.455000000
H     2.533000000     0.142000000    -2.079000000
C     2.389000000     2.930000000    -3.116000000
C     3.821000000     2.988000000    -2.596000000
H     4.109000000     4.037000000    -2.503000000
H     4.558000000     2.641000000    -3.323000000
C     4.019000000     2.380000000    -1.297000000
C     4.535000000     1.074000000    -1.311000000
C     4.778000000     0.516000000    -0.104000000
H     5.060000000    -0.533000000    -0.150000000
C     4.539000000     1.151000000     1.118000000
O     4.576000000     0.351000000     2.253000000
C     3.282000000     0.019000000     2.880000000
H     2.454000000     0.139000000     2.166000000
C     3.233000000    -1.475000000     3.327000000
C     2.352000000    -1.817000000     4.343000000
H     1.843000000    -1.003000000     4.852000000
C     3.884000000    -2.437000000     2.628000000
H     4.528000000    -2.232000000     1.776000000
C     3.619000000    -3.753000000     2.899000000
O     4.034000000    -4.750000000     2.059000000
C     2.873000000    -4.164000000     4.002000000
H     2.739000000    -5.163000000     4.409000000
C     2.170000000    -3.157000000     4.647000000
O     1.414000000    -3.607000000     5.786000000
C     0.364000000    -2.887000000     6.263000000
C    -0.796000000    -2.784000000     5.539000000
H    -0.838000000    -3.279000000     4.572000000
C     0.391000000    -2.363000000     7.587000000
H     1.281000000    -2.556000000     8.181000000
C    -0.690000000    -1.787000000     8.079000000
H    -0.744000000    -1.330000000     9.064000000
C    -1.835000000    -1.617000000     7.323000000
H    -2.728000000    -1.238000000     7.813000000
C    -1.872000000    -2.031000000     6.015000000
O    -3.058000000    -2.114000000     5.347000000
C    -3.555000000    -1.078000000     4.599000000
C    -4.829000000    -1.228000000     3.969000000
H    -5.515000000    -2.040000000     4.192000000
C    -5.264000000    -0.266000000     3.103000000
O    -6.585000000    -0.321000000     2.604000000
C    -7.085000000    -0.039000000     1.336000000
C    -6.486000000    -0.652000000     0.184000000
H    -5.508000000    -1.116000000     0.278000000
C    -8.174000000     0.809000000     1.198000000
H    -8.558000000     1.322000000     2.076000000
C    -8.786000000     0.932000000    -0.036000000
H    -9.705000000     1.502000000    -0.143000000
C    -8.230000000     0.413000000    -1.165000000
H    -8.788000000     0.467000000    -2.096000000
C    -7.047000000    -0.328000000    -1.051000000
O    -6.608000000    -0.939000000    -2.207000000
C    -5.427000000    -0.667000000    -2.861000000
C    -5.088000000    -1.553000000    -3.947000000
H    -5.713000000    -2.427000000    -4.109000000
C    -3.880000000    -1.281000000    -4.549000000
O    -3.453000000    -2.195000000    -5.454000000
C    -2.187000000    -2.258000000    -6.071000000
C    -1.181000000    -3.003000000    -5.448000000
H    -1.346000000    -3.426000000    -4.460000000
C    -1.971000000    -1.653000000    -7.265000000
H    -2.710000000    -1.050000000    -7.786000000
C    -0.708000000    -1.651000000    -7.851000000
H    -0.632000000    -1.179000000    -8.827000000
C     0.300000000    -2.390000000    -7.224000000
H     1.311000000    -2.373000000    -7.622000000
C     0.103000000    -3.098000000    -6.041000000
O     1.126000000    -3.770000000    -5.378000000
C     1.951000000    -3.244000000    -4.422000000
C     2.851000000    -4.157000000    -3.967000000
H     2.842000000    -5.152000000    -4.405000000
C     3.817000000    -3.824000000    -3.042000000
O     4.647000000    -4.831000000    -2.515000000
C     5.274000000    -4.703000000    -1.247000000
C     6.669000000    -4.731000000    -1.073000000
H     7.363000000    -4.941000000    -1.883000000
C     7.155000000    -4.587000000     0.272000000
H     8.221000000    -4.690000000     0.458000000
C     6.300000000    -4.584000000     1.367000000
H     6.668000000    -4.700000000     2.384000000
C     4.968000000    -4.624000000     1.116000000
C     4.467000000    -4.676000000    -0.177000000
H     3.395000000    -4.811000000    -0.298000000
C    -1.629000000    -1.466000000    -0.656000000
H    -2.327000000    -1.545000000    -1.485000000
C    -0.638000000    -0.420000000    -0.688000000
H    -0.479000000     0.175000000    -1.584000000
C     0.132000000    -0.182000000     0.456000000
H     0.792000000     0.689000000     0.451000000
C    -0.142000000    -0.846000000     1.651000000
H     0.407000000    -0.639000000     2.566000000
C    -1.180000000    -1.824000000     1.669000000
H    -1.316000000    -2.283000000     2.645000000
C    -1.950000000    -2.115000000     0.543000000
C    -3.048000000    -3.105000000     0.628000000
O    -3.129000000    -3.840000000     1.613000000
O    -3.917000000    -3.123000000    -0.219000000
O     0.854000000    -3.585000000     0.078000000
H     1.159000000    -4.089000000     0.833000000
H     0.707000000    -2.704000000     0.422000000
O    -6.327000000    -3.612000000    -1.821000000
H    -5.502000000    -3.665000000    -1.338000000
H    -6.592000000    -2.696000000    -1.743000000
O    -5.850000000    -4.600000000     1.909000000
H    -6.150000000    -3.780000000     2.302000000
H    -5.035000000    -4.368000000     1.464000000
O    -7.720000000    -5.792000000    -0.908000000
H    -8.505000000    -5.760000000    -1.455000000
H    -7.132000000    -5.145000000    -1.296000000
O    -2.612000000    -6.432000000     0.357000000
H    -2.550000000    -6.902000000     1.189000000
H    -3.118000000    -5.646000000     0.563000000
O    -1.683000000    -9.662000000    -0.340000000
H    -1.897000000    -9.768000000     0.587000000
H    -1.153000000    -8.866000000    -0.374000000
O     1.323000000    -7.132000000    -3.207000000
H     0.633000000    -6.683000000    -2.719000000
H     2.081000000    -7.115000000    -2.622000000
O    -3.232000000    -4.949000000    -2.668000000
H    -3.403000000    -4.252000000    -2.034000000
H    -2.329000000    -5.213000000    -2.495000000
O    -3.791000000    -6.957000000     4.782000000
H    -4.317000000    -6.158000000     4.821000000
H    -4.225000000    -7.497000000     4.122000000
O    -1.470000000    -6.295000000     6.206000000
H    -2.295000000    -6.479000000     5.757000000
H    -1.733000000    -5.926000000     7.049000000
O    -5.392000000    -5.273000000    -4.759000000
H    -5.973000000    -4.682000000    -4.280000000
H    -4.550000000    -5.196000000    -4.310000000
O    -0.379000000    -5.327000000    -1.847000000
H    -0.566000000    -5.913000000    -1.113000000
H     0.203000000    -4.662000000    -1.479000000
O     0.442000000    -7.664000000    -0.105000000
H     1.257000000    -7.450000000    -0.558000000
H     0.471000000    -7.144000000     0.698000000
O    -1.293000000    -5.762000000     3.232000000
H    -1.684000000    -6.005000000     4.072000000
H    -1.892000000    -5.110000000     2.869000000
O    -3.614000000    -7.512000000    -2.064000000
H    -3.854000000    -6.767000000    -2.614000000
H    -3.287000000    -7.118000000    -1.255000000
O     1.016000000    -6.092000000     1.900000000
H     0.154000000    -6.074000000     2.315000000
H     1.543000000    -6.656000000     2.467000000
O    -4.564000000    -3.347000000     7.342000000
H    -3.841000000    -3.084000000     6.773000000
H    -5.044000000    -4.001000000     6.832000000
O    -7.189000000    -6.874000000     1.682000000
H    -7.356000000    -6.502000000     0.816000000
H    -6.699000000    -6.194000000     2.145000000
O    -5.990000000    -5.159000000     5.703000000
H    -6.259000000    -5.852000000     6.307000000
H    -6.810000000    -4.835000000     5.329000000
