215
-1456.37940
C    -5.132000000     0.058000000     2.119000000
H    -5.388000000     0.989000000     1.619000000
C    -3.970000000     0.071000000     2.947000000
C    -3.645000000    -1.063000000     3.612000000
H    -2.746000000    -0.973000000     4.216000000
C    -3.046000000     1.262000000     3.023000000
O    -3.703000000     2.494000000     2.634000000
H    -2.268000000     1.133000000     2.255000000
O    -2.386000000     1.390000000     4.302000000
C    -0.967000000     1.590000000     4.353000000
C    -0.208000000     0.411000000     4.420000000
H    -0.594000000    -0.594000000     4.574000000
C     1.204000000     0.554000000     4.152000000
O     1.985000000    -0.550000000     4.169000000
C     1.717000000     1.805000000     3.772000000
C     3.212000000     1.990000000     3.727000000
H     3.540000000     2.975000000     4.066000000
C     3.860000000     1.672000000     2.353000000
C     3.926000000     2.684000000     1.450000000
H     3.521000000     3.659000000     1.712000000
H     3.597000000     1.243000000     4.425000000
C     0.936000000     2.952000000     3.807000000
H     1.343000000     3.927000000     3.552000000
C    -0.449000000     2.845000000     3.994000000
C    -1.367000000     4.002000000     3.697000000
H    -0.729000000     4.875000000     3.847000000
H    -2.136000000     4.035000000     4.472000000
C    -1.775000000     3.979000000     2.300000000
C    -1.001000000     4.725000000     1.434000000
H    -0.090000000     5.245000000     1.719000000
C    -2.959000000     3.344000000     1.858000000
C    -3.384000000     3.429000000     0.517000000
H    -4.296000000     2.922000000     0.212000000
C    -2.498000000     4.080000000    -0.378000000
O    -2.829000000     3.878000000    -1.702000000
C    -2.021000000     3.006000000    -2.516000000
C    -2.718000000     1.964000000    -3.382000000
C    -2.089000000     1.527000000    -4.549000000
H    -1.145000000     1.976000000    -4.846000000
C    -3.908000000     1.361000000    -2.978000000
H    -4.430000000     1.681000000    -2.080000000
O    -0.978000000     3.700000000    -3.194000000
H    -1.563000000     2.238000000    -1.875000000
C    -1.307000000     4.769000000     0.078000000
C    -0.417000000     5.445000000    -0.912000000
H     0.067000000     6.316000000    -0.466000000
H    -1.074000000     5.849000000    -1.685000000
C     0.628000000     4.458000000    -1.552000000
C     1.913000000     4.425000000    -1.041000000
H     2.150000000     4.966000000    -0.128000000
C     0.313000000     3.678000000    -2.640000000
C     1.251000000     2.842000000    -3.231000000
H     1.003000000     2.082000000    -3.968000000
C     2.546000000     2.823000000    -2.696000000
O     3.443000000     1.835000000    -3.151000000
C     3.535000000     0.654000000    -2.291000000
C     3.509000000    -0.636000000    -3.055000000
C     2.590000000    -0.786000000    -4.081000000
H     2.076000000     0.108000000    -4.426000000
C     4.359000000    -1.704000000    -2.661000000
H     5.039000000    -1.595000000    -1.820000000
O     4.760000000     0.684000000    -1.489000000
H     2.593000000     0.569000000    -1.729000000
C     2.869000000     3.656000000    -1.657000000
C     4.223000000     3.556000000    -0.982000000
H     4.396000000     4.527000000    -0.514000000
H     4.905000000     3.367000000    -1.815000000
C     4.315000000     2.426000000     0.108000000
C     4.648000000     1.107000000    -0.183000000
C     4.600000000     0.068000000     0.765000000
H     4.860000000    -0.948000000     0.479000000
C     4.160000000     0.356000000     2.040000000
O     3.888000000    -0.724000000     2.811000000
C     2.548000000    -1.089000000     2.953000000
H     1.870000000    -0.898000000     2.108000000
C     2.495000000    -2.633000000     3.055000000
C     1.516000000    -3.228000000     3.855000000
H     0.793000000    -2.631000000     4.405000000
C     3.369000000    -3.447000000     2.291000000
H     4.131000000    -2.962000000     1.685000000
C     3.164000000    -4.801000000     2.230000000
O     3.754000000    -5.604000000     1.250000000
C     2.178000000    -5.402000000     3.033000000
H     1.992000000    -6.466000000     2.908000000
C     1.383000000    -4.643000000     3.868000000
O     0.366000000    -5.216000000     4.546000000
C    -0.687000000    -4.480000000     5.096000000
C    -1.828000000    -4.271000000     4.337000000
H    -1.717000000    -4.410000000     3.265000000
C    -0.721000000    -4.054000000     6.449000000
H     0.159000000    -4.236000000     7.061000000
C    -1.885000000    -3.636000000     7.041000000
H    -1.704000000    -3.309000000     8.062000000
C    -3.034000000    -3.497000000     6.269000000
H    -3.908000000    -3.026000000     6.712000000
C    -2.969000000    -3.701000000     4.873000000
O    -4.159000000    -3.468000000     4.124000000
C    -4.536000000    -2.205000000     3.592000000
C    -5.759000000    -2.142000000     2.835000000
H    -6.364000000    -3.039000000     2.732000000
C    -5.984000000    -1.077000000     1.967000000
O    -7.071000000    -1.127000000     1.010000000
C    -7.049000000    -0.394000000    -0.153000000
C    -6.147000000    -0.667000000    -1.104000000
H    -5.412000000    -1.430000000    -0.862000000
C    -8.123000000     0.560000000    -0.227000000
H    -8.760000000     0.750000000     0.633000000
C    -8.269000000     1.287000000    -1.371000000
H    -8.974000000     2.114000000    -1.388000000
C    -7.335000000     1.001000000    -2.403000000
H    -7.301000000     1.599000000    -3.310000000
C    -6.338000000     0.015000000    -2.280000000
O    -5.629000000    -0.217000000    -3.423000000
C    -4.421000000     0.351000000    -3.751000000
C    -3.886000000    -0.015000000    -4.935000000
H    -4.426000000    -0.650000000    -5.632000000
C    -2.735000000     0.611000000    -5.376000000
O    -2.288000000     0.304000000    -6.657000000
C    -0.974000000     0.148000000    -6.906000000
C    -0.291000000    -1.028000000    -6.685000000
H    -0.755000000    -1.959000000    -6.370000000
C    -0.319000000     1.294000000    -7.386000000
H    -0.818000000     2.220000000    -7.661000000
C     1.053000000     1.270000000    -7.425000000
H     1.653000000     2.098000000    -7.793000000
C     1.765000000     0.154000000    -6.964000000
H     2.843000000     0.231000000    -6.843000000
C     1.085000000    -1.010000000    -6.668000000
O     1.817000000    -2.024000000    -6.036000000
C     2.582000000    -1.895000000    -4.917000000
C     3.385000000    -2.992000000    -4.519000000
H     3.371000000    -3.862000000    -5.170000000
C     4.221000000    -2.887000000    -3.408000000
O     5.059000000    -3.984000000    -3.166000000
C     5.380000000    -4.422000000    -1.869000000
C     6.682000000    -4.587000000    -1.524000000
H     7.438000000    -4.326000000    -2.261000000
C     7.070000000    -5.018000000    -0.280000000
H     8.135000000    -5.103000000    -0.082000000
C     6.134000000    -5.344000000     0.679000000
H     6.437000000    -5.877000000     1.576000000
C     4.749000000    -5.203000000     0.407000000
C     4.407000000    -4.710000000    -0.910000000
H     3.383000000    -4.404000000    -1.111000000
C    -1.240000000    -0.927000000    -1.393000000
H    -1.402000000    -0.797000000    -2.460000000
C    -0.432000000    -0.039000000    -0.704000000
H     0.095000000     0.769000000    -1.204000000
C    -0.227000000    -0.172000000     0.676000000
H     0.410000000     0.519000000     1.325000000
C    -0.798000000    -1.293000000     1.304000000
H    -0.517000000    -1.407000000     2.348000000
C    -1.651000000    -2.149000000     0.647000000
H    -2.142000000    -2.917000000     1.239000000
C    -1.934000000    -1.899000000    -0.668000000
C    -2.981000000    -2.828000000    -1.300000000
O    -3.451000000    -3.745000000    -0.661000000
O    -3.105000000    -2.865000000    -2.484000000
O     0.381000000    -4.380000000    -0.588000000
H    -0.174000000    -4.896000000    -0.002000000
H     0.484000000    -3.540000000    -0.142000000
O    -8.599000000    -3.763000000    -1.199000000
H    -7.835000000    -3.693000000    -1.771000000
H    -8.922000000    -4.653000000    -1.338000000
O    -4.757000000    -5.698000000    -5.265000000
H    -5.326000000    -4.928000000    -5.292000000
H    -4.336000000    -5.654000000    -4.407000000
O    -6.491000000    -4.272000000     0.464000000
H    -5.634000000    -4.069000000     0.089000000
H    -7.112000000    -4.069000000    -0.235000000
O    -6.386000000    -3.572000000    -2.473000000
H    -6.235000000    -2.972000000    -3.203000000
H    -5.625000000    -4.152000000    -2.478000000
O    -3.090000000    -2.656000000    -7.913000000
H    -3.154000000    -1.744000000    -8.197000000
H    -3.107000000    -2.610000000    -6.957000000
O    -6.385000000    -7.059000000    -0.652000000
H    -5.926000000    -6.638000000     0.075000000
H    -6.183000000    -6.512000000    -1.411000000
O    -6.106000000    -3.365000000    -5.405000000
H    -6.085000000    -2.432000000    -5.617000000
H    -5.913000000    -3.803000000    -6.234000000
O    -0.856000000    -6.035000000     1.083000000
H    -1.672000000    -6.324000000     0.675000000
H    -0.553000000    -6.797000000     1.578000000
O    -7.191000000    -5.790000000     2.610000000
H    -7.781000000    -5.094000000     2.901000000
H    -6.809000000    -5.455000000     1.799000000
O    -2.362000000    -7.736000000    -1.978000000
H    -2.030000000    -8.120000000    -1.166000000
H    -2.894000000    -8.428000000    -2.370000000
O    -3.244000000    -2.895000000    -5.169000000
H    -3.792000000    -3.674000000    -5.073000000
H    -3.130000000    -2.570000000    -4.276000000
O    -0.813000000    -6.213000000    -5.245000000
H    -0.111000000    -6.107000000    -5.887000000
H    -0.857000000    -5.369000000    -4.795000000
O     0.219000000    -7.009000000    -2.825000000
H     0.221000000    -6.223000000    -3.372000000
H    -0.708000000    -7.187000000    -2.665000000
O    -3.860000000    -5.604000000    -2.797000000
H    -3.289000000    -6.358000000    -2.651000000
H    -3.498000000    -4.917000000    -2.238000000
O    -0.741000000    -4.098000000    -3.299000000
H    -1.597000000    -3.720000000    -3.099000000
H    -0.322000000    -4.208000000    -2.445000000
O    -3.730000000    -5.557000000     1.113000000
H    -3.574000000    -5.058000000     1.915000000
H    -3.666000000    -4.909000000     0.411000000
O     1.669000000    -6.912000000    -0.482000000
H     1.492000000    -5.983000000    -0.336000000
H     1.260000000    -7.105000000    -1.325000000
O    -4.314000000    -8.065000000     1.566000000
H    -4.242000000    -7.148000000     1.301000000
H    -3.951000000    -8.088000000     2.451000000
