215
-1456.69898
C    -4.844000000     1.416000000     2.467000000
H    -4.801000000     2.123000000     1.642000000
C    -3.696000000     1.467000000     3.297000000
C    -3.547000000     0.439000000     4.276000000
H    -2.631000000     0.505000000     4.859000000
C    -2.453000000     2.310000000     2.958000000
O    -2.865000000     3.567000000     2.346000000
H    -1.843000000     1.746000000     2.237000000
O    -1.556000000     2.390000000     4.097000000
C    -0.164000000     2.426000000     3.969000000
C     0.511000000     1.244000000     4.355000000
H    -0.069000000     0.449000000     4.817000000
C     1.845000000     1.100000000     4.134000000
O     2.440000000    -0.160000000     4.272000000
C     2.591000000     2.218000000     3.572000000
C     4.016000000     2.087000000     3.146000000
H     4.443000000     3.089000000     3.221000000
C     4.280000000     1.456000000     1.813000000
C     4.367000000     2.242000000     0.724000000
H     4.217000000     3.318000000     0.755000000
H     4.566000000     1.503000000     3.887000000
C     1.904000000     3.368000000     3.178000000
H     2.435000000     4.108000000     2.585000000
C     0.500000000     3.494000000     3.400000000
C    -0.207000000     4.811000000     2.904000000
H     0.602000000     5.543000000     2.868000000
H    -0.928000000     5.197000000     3.628000000
C    -0.780000000     4.666000000     1.521000000
C    -0.007000000     4.935000000     0.390000000
H     1.015000000     5.284000000     0.513000000
C    -2.039000000     3.984000000     1.351000000
C    -2.544000000     3.794000000     0.112000000
H    -3.541000000     3.368000000     0.039000000
C    -1.789000000     4.141000000    -1.053000000
O    -2.207000000     3.794000000    -2.341000000
C    -1.526000000     2.732000000    -3.095000000
C    -2.626000000     1.844000000    -3.693000000
C    -2.351000000     1.228000000    -4.880000000
H    -1.410000000     1.397000000    -5.397000000
C    -3.826000000     1.603000000    -3.016000000
H    -3.895000000     2.013000000    -2.012000000
O    -0.587000000     3.253000000    -4.018000000
H    -0.925000000     2.140000000    -2.389000000
C    -0.492000000     4.683000000    -0.875000000
C     0.331000000     5.190000000    -2.099000000
H     1.080000000     5.950000000    -1.869000000
H    -0.347000000     5.525000000    -2.887000000
C     1.212000000     4.055000000    -2.584000000
C     2.463000000     3.871000000    -1.996000000
H     2.723000000     4.361000000    -1.061000000
C     0.674000000     3.181000000    -3.510000000
C     1.553000000     2.147000000    -3.932000000
H     1.262000000     1.594000000    -4.822000000
C     2.709000000     1.864000000    -3.265000000
O     3.438000000     0.734000000    -3.649000000
C     3.471000000    -0.291000000    -2.647000000
C     3.122000000    -1.669000000    -3.146000000
C     1.923000000    -1.885000000    -3.848000000
H     1.290000000    -1.061000000    -4.167000000
C     3.901000000    -2.752000000    -2.756000000
H     4.861000000    -2.649000000    -2.256000000
O     4.672000000    -0.347000000    -1.813000000
H     2.626000000    -0.149000000    -1.957000000
C     3.233000000     2.835000000    -2.403000000
C     4.577000000     2.612000000    -1.734000000
H     4.865000000     3.624000000    -1.444000000
H     5.270000000     2.196000000    -2.469000000
C     4.516000000     1.698000000    -0.543000000
C     4.600000000     0.282000000    -0.641000000
C     4.557000000    -0.550000000     0.495000000
H     4.417000000    -1.615000000     0.326000000
C     4.395000000     0.035000000     1.717000000
O     4.101000000    -0.848000000     2.815000000
C     2.719000000    -0.967000000     3.062000000
H     2.097000000    -0.738000000     2.185000000
C     2.347000000    -2.406000000     3.313000000
C     1.245000000    -2.684000000     4.122000000
H     0.633000000    -1.933000000     4.614000000
C     2.990000000    -3.477000000     2.628000000
H     3.876000000    -3.283000000     2.029000000
C     2.430000000    -4.746000000     2.695000000
O     2.796000000    -5.831000000     1.970000000
C     1.347000000    -5.023000000     3.550000000
H     0.947000000    -6.012000000     3.758000000
C     0.738000000    -3.991000000     4.196000000
O    -0.427000000    -4.314000000     4.945000000
C    -1.247000000    -3.475000000     5.623000000
C    -2.507000000    -2.999000000     5.139000000
H    -2.928000000    -3.497000000     4.269000000
C    -0.777000000    -3.067000000     6.856000000
H     0.169000000    -3.538000000     7.112000000
C    -1.464000000    -2.115000000     7.574000000
H    -1.094000000    -1.711000000     8.513000000
C    -2.666000000    -1.585000000     7.076000000
H    -3.223000000    -0.949000000     7.759000000
C    -3.186000000    -2.046000000     5.819000000
O    -4.372000000    -1.602000000     5.348000000
C    -4.538000000    -0.601000000     4.436000000
C    -5.703000000    -0.536000000     3.636000000
H    -6.429000000    -1.335000000     3.759000000
C    -5.822000000     0.422000000     2.568000000
O    -6.929000000     0.284000000     1.752000000
C    -6.960000000     0.942000000     0.540000000
C    -6.434000000     0.266000000    -0.520000000
H    -5.980000000    -0.693000000    -0.282000000
C    -7.545000000     2.192000000     0.477000000
H    -8.121000000     2.625000000     1.290000000
C    -7.521000000     2.776000000    -0.833000000
H    -7.974000000     3.738000000    -1.062000000
C    -6.892000000     2.155000000    -1.888000000
H    -6.897000000     2.546000000    -2.903000000
C    -6.306000000     0.917000000    -1.750000000
O    -5.769000000     0.244000000    -2.791000000
C    -4.748000000     0.658000000    -3.555000000
C    -4.446000000    -0.005000000    -4.796000000
H    -5.126000000    -0.765000000    -5.172000000
C    -3.269000000     0.344000000    -5.410000000
O    -2.887000000    -0.259000000    -6.565000000
C    -1.769000000    -1.002000000    -6.750000000
C    -1.211000000    -1.810000000    -5.733000000
H    -1.623000000    -1.757000000    -4.729000000
C    -1.217000000    -1.028000000    -8.014000000
H    -1.623000000    -0.355000000    -8.764000000
C    -0.014000000    -1.684000000    -8.203000000
H     0.482000000    -1.799000000    -9.163000000
C     0.581000000    -2.417000000    -7.187000000
H     1.528000000    -2.931000000    -7.326000000
C    -0.096000000    -2.560000000    -5.965000000
O     0.413000000    -3.374000000    -4.983000000
C     1.547000000    -3.162000000    -4.262000000
C     2.252000000    -4.258000000    -3.836000000
H     1.992000000    -5.266000000    -4.149000000
C     3.397000000    -4.079000000    -3.048000000
O     4.083000000    -5.167000000    -2.566000000
C     4.403000000    -5.428000000    -1.285000000
C     5.718000000    -5.605000000    -0.943000000
H     6.566000000    -5.685000000    -1.618000000
C     6.096000000    -5.868000000     0.402000000
H     7.111000000    -6.122000000     0.696000000
C     5.151000000    -5.917000000     1.430000000
H     5.466000000    -6.161000000     2.442000000
C     3.779000000    -5.692000000     1.018000000
C     3.388000000    -5.577000000    -0.316000000
H     2.338000000    -5.482000000    -0.583000000
C    -1.096000000    -0.964000000    -1.581000000
H    -1.068000000    -1.240000000    -2.632000000
C    -0.300000000     0.089000000    -1.020000000
H     0.459000000     0.593000000    -1.613000000
C    -0.208000000     0.281000000     0.357000000
H     0.452000000     1.053000000     0.859000000
C    -1.107000000    -0.422000000     1.138000000
H    -1.171000000    -0.339000000     2.220000000
C    -2.092000000    -1.285000000     0.639000000
H    -2.755000000    -1.833000000     1.304000000
C    -2.088000000    -1.564000000    -0.769000000
C    -2.971000000    -2.642000000    -1.236000000
O    -3.757000000    -3.241000000    -0.512000000
O    -2.770000000    -3.097000000    -2.344000000
O    -0.099000000    -3.935000000     1.043000000
H     0.005000000    -3.092000000     1.484000000
H    -0.994000000    -4.204000000     1.249000000
O    -5.035000000    -6.848000000    -4.516000000
H    -4.831000000    -5.913000000    -4.533000000
H    -4.482000000    -7.201000000    -3.819000000
O    -9.914000000    -1.240000000    -0.892000000
H    -9.722000000    -1.837000000    -0.169000000
H    -9.242000000    -1.433000000    -1.546000000
O    -2.631000000    -4.201000000    -8.130000000
H    -3.180000000    -3.777000000    -8.790000000
H    -2.324000000    -3.483000000    -7.576000000
O    -9.017000000    -4.452000000    -1.920000000
H    -8.126000000    -4.103000000    -1.966000000
H    -8.978000000    -5.118000000    -1.234000000
O    -6.226000000    -3.503000000    -1.726000000
H    -6.312000000    -4.447000000    -1.860000000
H    -5.322000000    -3.384000000    -1.434000000
O    -5.477000000    -2.646000000     1.284000000
H    -6.313000000    -2.545000000     0.829000000
H    -4.841000000    -2.794000000     0.584000000
O    -2.518000000    -4.917000000     1.171000000
H    -3.094000000    -5.611000000     1.491000000
H    -3.082000000    -4.371000000     0.623000000
O    -1.146000000    -7.950000000    -4.043000000
H    -0.468000000    -8.247000000    -3.437000000
H    -1.405000000    -7.090000000    -3.710000000
O    -4.436000000    -4.173000000    -4.297000000
H    -3.949000000    -3.602000000    -3.703000000
H    -5.264000000    -3.715000000    -4.443000000
O     1.351000000    -7.380000000    -2.423000000
H     1.174000000    -6.485000000    -2.712000000
H     0.946000000    -7.437000000    -1.557000000
O    -1.068000000    -5.124000000    -3.040000000
H    -0.721000000    -4.658000000    -3.801000000
H    -1.623000000    -4.481000000    -2.598000000
O    -0.005000000    -6.396000000    -0.086000000
H    -0.629000000    -6.072000000    -0.735000000
H     0.226000000    -5.624000000     0.431000000
O    -3.682000000    -6.990000000     2.526000000
H    -4.598000000    -7.208000000     2.351000000
H    -3.578000000    -7.136000000     3.467000000
O    -0.763000000    -7.674000000     2.149000000
H    -1.638000000    -7.285000000     2.169000000
H    -0.379000000    -7.359000000     1.331000000
O    -5.344000000    -4.155000000     3.734000000
H    -5.144000000    -3.502000000     4.405000000
H    -5.165000000    -3.710000000     2.906000000
O    -7.961000000    -1.754000000    -2.642000000
H    -7.129000000    -2.111000000    -2.330000000
H    -7.720000000    -0.944000000    -3.093000000
O    -6.979000000    -6.521000000    -1.924000000
H    -7.871000000    -6.757000000    -1.672000000
H    -6.459000000    -7.299000000    -1.724000000
O    -6.772000000    -2.796000000    -4.940000000
H    -7.197000000    -2.823000000    -4.083000000
H    -7.140000000    -2.021000000    -5.365000000
