215
-1447.07085
C    -4.525000000     0.902000000     2.321000000
H    -4.763000000     1.758000000     1.695000000
C    -3.380000000     0.965000000     3.144000000
C    -3.162000000    -0.039000000     4.118000000
H    -2.332000000     0.063000000     4.812000000
C    -2.341000000     2.055000000     2.927000000
O    -2.894000000     3.236000000     2.284000000
H    -1.680000000     1.664000000     2.140000000
O    -1.508000000     2.352000000     3.993000000
C    -0.173000000     2.518000000     3.759000000
C     0.639000000     1.448000000     4.065000000
H     0.128000000     0.551000000     4.406000000
C     1.950000000     1.359000000     3.726000000
O     2.648000000     0.211000000     3.954000000
C     2.600000000     2.478000000     3.230000000
C     4.097000000     2.570000000     2.923000000
H     4.537000000     3.569000000     2.949000000
C     4.400000000     1.871000000     1.591000000
C     4.341000000     2.695000000     0.450000000
H     4.211000000     3.770000000     0.545000000
H     4.628000000     2.033000000     3.711000000
C     1.778000000     3.561000000     2.923000000
H     2.303000000     4.401000000     2.477000000
C     0.399000000     3.605000000     3.155000000
C    -0.463000000     4.751000000     2.813000000
H     0.160000000     5.635000000     2.965000000
H    -1.087000000     4.883000000     3.699000000
C    -1.165000000     4.655000000     1.479000000
C    -0.485000000     5.132000000     0.332000000
H     0.484000000     5.612000000     0.439000000
C    -2.233000000     3.887000000     1.281000000
C    -2.771000000     3.621000000     0.049000000
H    -3.558000000     2.872000000     0.013000000
C    -2.161000000     4.099000000    -1.075000000
O    -2.624000000     3.735000000    -2.294000000
C    -2.086000000     2.638000000    -2.972000000
C    -3.130000000     1.767000000    -3.682000000
C    -2.762000000     1.001000000    -4.804000000
H    -1.732000000     0.941000000    -5.148000000
C    -4.448000000     1.718000000    -3.213000000
H    -4.813000000     2.383000000    -2.434000000
O    -1.162000000     3.095000000    -3.993000000
H    -1.573000000     1.986000000    -2.249000000
C    -1.017000000     4.832000000    -0.921000000
C    -0.205000000     5.272000000    -2.133000000
H     0.380000000     6.150000000    -1.851000000
H    -0.834000000     5.625000000    -2.953000000
C     0.618000000     4.161000000    -2.599000000
C     1.905000000     4.074000000    -2.203000000
H     2.370000000     4.840000000    -1.587000000
C     0.142000000     3.226000000    -3.520000000
C     0.953000000     2.170000000    -3.831000000
H     0.495000000     1.381000000    -4.422000000
C     2.263000000     2.025000000    -3.370000000
O     2.921000000     0.873000000    -3.702000000
C     3.178000000    -0.011000000    -2.569000000
C     2.832000000    -1.485000000    -2.850000000
C     1.625000000    -1.809000000    -3.449000000
H     1.047000000    -0.908000000    -3.637000000
C     3.662000000    -2.488000000    -2.411000000
H     4.601000000    -2.314000000    -1.891000000
O     4.551000000     0.201000000    -2.151000000
H     2.521000000     0.192000000    -1.712000000
C     2.777000000     2.980000000    -2.522000000
C     4.256000000     2.924000000    -2.016000000
H     4.740000000     3.884000000    -1.823000000
H     4.916000000     2.555000000    -2.803000000
C     4.434000000     2.070000000    -0.814000000
C     4.622000000     0.732000000    -0.921000000
C     4.648000000    -0.113000000     0.189000000
H     4.410000000    -1.146000000    -0.051000000
C     4.500000000     0.448000000     1.473000000
O     4.278000000    -0.484000000     2.478000000
C     2.922000000    -0.760000000     2.864000000
H     2.318000000    -0.614000000     1.957000000
C     2.828000000    -2.203000000     3.256000000
C     1.645000000    -2.556000000     3.933000000
H     0.996000000    -1.730000000     4.212000000
C     3.695000000    -3.192000000     2.770000000
H     4.485000000    -2.890000000     2.087000000
C     3.411000000    -4.544000000     3.067000000
O     4.216000000    -5.577000000     2.559000000
C     2.320000000    -4.888000000     3.827000000
H     2.159000000    -5.953000000     3.973000000
C     1.425000000    -3.906000000     4.211000000
O     0.335000000    -4.321000000     4.854000000
C    -0.499000000    -3.506000000     5.603000000
C    -1.808000000    -3.394000000     5.143000000
H    -2.144000000    -3.940000000     4.265000000
C    -0.107000000    -2.851000000     6.748000000
H     0.910000000    -2.999000000     7.103000000
C    -0.956000000    -1.991000000     7.364000000
H    -0.617000000    -1.505000000     8.275000000
C    -2.206000000    -1.792000000     6.848000000
H    -2.898000000    -1.061000000     7.259000000
C    -2.655000000    -2.430000000     5.702000000
O    -3.853000000    -2.111000000     5.175000000
C    -4.133000000    -1.040000000     4.314000000
C    -5.206000000    -1.091000000     3.453000000
H    -5.971000000    -1.860000000     3.516000000
C    -5.354000000    -0.166000000     2.437000000
O    -6.511000000    -0.272000000     1.598000000
C    -6.806000000     0.435000000     0.427000000
C    -6.614000000     0.001000000    -0.895000000
H    -6.021000000    -0.888000000    -1.096000000
C    -7.496000000     1.637000000     0.629000000
H    -7.636000000     1.970000000     1.654000000
C    -7.889000000     2.386000000    -0.511000000
H    -8.394000000     3.324000000    -0.294000000
C    -7.552000000     2.017000000    -1.835000000
H    -7.761000000     2.610000000    -2.722000000
C    -6.938000000     0.811000000    -1.936000000
O    -6.592000000     0.367000000    -3.229000000
C    -5.300000000     0.683000000    -3.759000000
C    -4.953000000    -0.039000000    -4.878000000
H    -5.686000000    -0.678000000    -5.362000000
C    -3.666000000     0.135000000    -5.417000000
O    -3.290000000    -0.831000000    -6.319000000
C    -2.026000000    -1.466000000    -6.356000000
C    -1.555000000    -2.025000000    -5.206000000
H    -2.100000000    -1.926000000    -4.271000000
C    -1.443000000    -1.822000000    -7.632000000
H    -1.832000000    -1.445000000    -8.575000000
C    -0.525000000    -2.828000000    -7.699000000
H    -0.280000000    -3.281000000    -8.656000000
C     0.015000000    -3.313000000    -6.479000000
H     0.888000000    -3.950000000    -6.360000000
C    -0.479000000    -2.939000000    -5.236000000
O     0.018000000    -3.513000000    -4.099000000
C     1.326000000    -3.153000000    -3.692000000
C     2.148000000    -4.145000000    -3.203000000
H     1.830000000    -5.184000000    -3.231000000
C     3.393000000    -3.819000000    -2.662000000
O     4.108000000    -4.903000000    -2.188000000
C     4.858000000    -5.060000000    -1.085000000
C     6.214000000    -5.154000000    -1.129000000
H     6.709000000    -5.183000000    -2.096000000
C     6.988000000    -5.341000000     0.015000000
H     8.071000000    -5.425000000    -0.034000000
C     6.358000000    -5.444000000     1.243000000
H     7.010000000    -5.553000000     2.106000000
C     4.915000000    -5.386000000     1.324000000
C     4.188000000    -5.174000000     0.166000000
H     3.103000000    -5.190000000     0.228000000
C    -1.174000000    -0.747000000    -1.171000000
H    -1.423000000    -0.806000000    -2.227000000
C    -0.107000000    -0.002000000    -0.763000000
H     0.414000000     0.563000000    -1.531000000
C     0.221000000     0.074000000     0.557000000
H     1.027000000     0.790000000     0.727000000
C    -0.493000000    -0.618000000     1.517000000
H    -0.318000000    -0.439000000     2.574000000
C    -1.583000000    -1.343000000     1.076000000
H    -2.234000000    -1.694000000     1.873000000
C    -1.986000000    -1.423000000    -0.253000000
C    -3.220000000    -2.158000000    -0.715000000
O    -3.736000000    -2.980000000     0.061000000
O    -3.600000000    -2.147000000    -1.839000000
O     0.264000000    -3.565000000     0.518000000
H    -0.595000000    -3.427000000     0.918000000
H     0.539000000    -2.694000000     0.233000000
O   -10.091000000    -1.632000000    -1.425000000
H    -9.947000000    -1.467000000    -0.493000000
H    -9.309000000    -2.107000000    -1.707000000
O    -2.874000000    -6.477000000    -6.096000000
H    -2.457000000    -6.230000000    -5.271000000
H    -3.262000000    -5.665000000    -6.421000000
O    -3.931000000    -4.107000000    -6.748000000
H    -4.768000000    -3.701000000    -6.521000000
H    -3.427000000    -4.088000000    -5.934000000
O    -8.638000000    -4.221000000    -1.763000000
H    -7.706000000    -4.029000000    -1.866000000
H    -8.740000000    -4.426000000    -0.833000000
O    -5.825000000    -3.767000000    -1.926000000
H    -5.710000000    -3.778000000    -2.876000000
H    -5.059000000    -3.296000000    -1.597000000
O    -5.967000000    -3.718000000     1.482000000
H    -6.325000000    -2.866000000     1.735000000
H    -5.262000000    -3.509000000     0.870000000
O    -2.542000000    -5.535000000    -1.362000000
H    -2.202000000    -5.739000000    -0.491000000
H    -3.147000000    -4.808000000    -1.218000000
O    -0.402000000    -8.362000000    -1.390000000
H    -0.108000000    -7.545000000    -0.989000000
H    -0.392000000    -8.185000000    -2.331000000
O    -3.706000000    -3.985000000    -3.761000000
H    -3.593000000    -3.260000000    -3.146000000
H    -3.151000000    -4.683000000    -3.413000000
O    -1.244000000    -6.210000000    -3.647000000
H    -1.769000000    -6.260000000    -2.849000000
H    -0.842000000    -5.342000000    -3.616000000
O     0.959000000    -6.171000000    -0.550000000
H     0.901000000    -6.365000000     0.386000000
H     0.675000000    -5.260000000    -0.624000000
O    -2.816000000    -4.940000000     1.565000000
H    -3.628000000    -5.267000000     1.950000000
H    -3.018000000    -4.041000000     1.305000000
O    -4.096000000    -7.715000000    -2.128000000
H    -5.040000000    -7.758000000    -1.974000000
H    -3.787000000    -7.031000000    -1.535000000
O    -0.082000000    -6.411000000     1.956000000
H    -0.092000000    -5.487000000     2.206000000
H    -0.996000000    -6.614000000     1.757000000
O    -6.041000000    -4.095000000     4.916000000
H    -6.327000000    -4.126000000     5.829000000
H    -5.458000000    -3.338000000     4.873000000
O    -7.952000000    -1.122000000    -5.400000000
H    -7.661000000    -0.864000000    -4.525000000
H    -8.249000000    -0.307000000    -5.804000000
O    -5.343000000    -8.455000000     1.180000000
H    -5.423000000    -7.505000000     1.087000000
H    -5.328000000    -8.602000000     2.126000000
O    -6.892000000    -6.167000000     1.334000000
H    -7.846000000    -6.128000000     1.277000000
H    -6.614000000    -5.251000000     1.323000000
