215
-1463.89617
C    -4.313000000     1.168000000     2.825000000
H    -4.502000000     2.131000000     2.357000000
C    -3.067000000     0.985000000     3.428000000
C    -2.824000000    -0.245000000     3.999000000
H    -1.801000000    -0.396000000     4.333000000
C    -1.944000000     2.050000000     3.288000000
O    -2.457000000     3.345000000     2.975000000
H    -1.379000000     1.657000000     2.430000000
O    -1.060000000     2.263000000     4.450000000
C     0.269000000     2.222000000     4.189000000
C     0.938000000     1.038000000     4.357000000
H     0.438000000     0.167000000     4.774000000
C     2.262000000     1.020000000     3.962000000
O     2.828000000    -0.192000000     4.021000000
C     2.930000000     2.127000000     3.443000000
C     4.330000000     1.988000000     2.999000000
H     4.807000000     2.967000000     3.091000000
C     4.343000000     1.425000000     1.569000000
C     4.435000000     2.340000000     0.491000000
H     4.507000000     3.414000000     0.638000000
H     4.973000000     1.451000000     3.699000000
C     2.219000000     3.372000000     3.266000000
H     2.764000000     4.233000000     2.887000000
C     0.851000000     3.393000000     3.674000000
C     0.027000000     4.673000000     3.491000000
H     0.666000000     5.557000000     3.446000000
H    -0.697000000     4.825000000     4.294000000
C    -0.711000000     4.594000000     2.085000000
C    -0.021000000     5.009000000     0.929000000
H     0.978000000     5.426000000     1.027000000
C    -1.954000000     3.973000000     1.970000000
C    -2.523000000     3.654000000     0.698000000
H    -3.477000000     3.137000000     0.639000000
C    -1.891000000     4.072000000    -0.389000000
O    -2.458000000     3.662000000    -1.597000000
C    -1.865000000     2.679000000    -2.479000000
C    -2.881000000     1.848000000    -3.213000000
C    -2.675000000     1.318000000    -4.514000000
H    -1.696000000     1.494000000    -4.953000000
C    -3.981000000     1.391000000    -2.506000000
H    -4.097000000     1.771000000    -1.494000000
O    -0.970000000     3.286000000    -3.470000000
H    -1.271000000     2.001000000    -1.849000000
C    -0.678000000     4.812000000    -0.346000000
C     0.036000000     5.283000000    -1.671000000
H     0.679000000     6.141000000    -1.465000000
H    -0.655000000     5.606000000    -2.452000000
C     0.931000000     4.165000000    -2.262000000
C     2.256000000     4.154000000    -1.967000000
H     2.715000000     4.797000000    -1.220000000
C     0.357000000     3.245000000    -3.141000000
C     1.101000000     2.265000000    -3.709000000
H     0.603000000     1.562000000    -4.372000000
C     2.468000000     2.129000000    -3.430000000
O     3.126000000     0.985000000    -3.950000000
C     3.215000000    -0.080000000    -2.972000000
C     2.839000000    -1.480000000    -3.596000000
C     1.845000000    -1.537000000    -4.609000000
H     1.497000000    -0.641000000    -5.116000000
C     3.254000000    -2.575000000    -2.915000000
H     3.938000000    -2.552000000    -2.070000000
O     4.498000000    -0.065000000    -2.327000000
H     2.438000000    -0.021000000    -2.195000000
C     3.046000000     3.068000000    -2.526000000
C     4.437000000     2.777000000    -2.027000000
H     4.891000000     3.719000000    -1.713000000
H     5.102000000     2.322000000    -2.764000000
C     4.476000000     1.867000000    -0.813000000
C     4.499000000     0.469000000    -1.047000000
C     4.270000000    -0.379000000    -0.039000000
H     4.190000000    -1.423000000    -0.332000000
C     4.137000000     0.053000000     1.263000000
O     3.955000000    -0.901000000     2.177000000
C     2.713000000    -1.031000000     2.857000000
H     1.843000000    -0.633000000     2.315000000
C     2.503000000    -2.477000000     3.280000000
C     1.698000000    -2.808000000     4.381000000
H     1.226000000    -2.072000000     5.027000000
C     2.944000000    -3.506000000     2.456000000
H     3.556000000    -3.269000000     1.590000000
C     2.720000000    -4.801000000     2.721000000
O     3.352000000    -5.751000000     1.999000000
C     1.919000000    -5.164000000     3.776000000
H     1.543000000    -6.176000000     3.903000000
C     1.437000000    -4.127000000     4.650000000
O     0.671000000    -4.478000000     5.730000000
C    -0.511000000    -3.858000000     6.104000000
C    -1.441000000    -3.471000000     5.103000000
H    -1.314000000    -3.816000000     4.080000000
C    -0.755000000    -3.451000000     7.397000000
H    -0.051000000    -3.601000000     8.211000000
C    -1.935000000    -2.871000000     7.750000000
H    -2.098000000    -2.697000000     8.810000000
C    -2.874000000    -2.532000000     6.766000000
H    -3.829000000    -2.104000000     7.059000000
C    -2.624000000    -2.800000000     5.419000000
O    -3.484000000    -2.478000000     4.481000000
C    -3.690000000    -1.252000000     3.971000000
C    -4.966000000    -1.085000000     3.448000000
H    -5.617000000    -1.955000000     3.418000000
C    -5.262000000     0.182000000     2.830000000
O    -6.520000000     0.344000000     2.325000000
C    -6.787000000     0.746000000     1.054000000
C    -6.138000000     0.145000000    -0.039000000
H    -5.354000000    -0.594000000     0.100000000
C    -7.859000000     1.646000000     0.917000000
H    -8.387000000     2.110000000     1.747000000
C    -8.264000000     2.039000000    -0.390000000
H    -8.975000000     2.846000000    -0.545000000
C    -7.624000000     1.459000000    -1.472000000
H    -7.986000000     1.780000000    -2.445000000
C    -6.572000000     0.555000000    -1.324000000
O    -6.014000000    -0.003000000    -2.454000000
C    -4.868000000     0.482000000    -3.097000000
C    -4.595000000    -0.062000000    -4.394000000
H    -5.307000000    -0.718000000    -4.887000000
C    -3.464000000     0.381000000    -5.130000000
O    -3.203000000    -0.015000000    -6.469000000
C    -2.055000000    -0.436000000    -6.992000000
C    -1.283000000    -1.308000000    -6.261000000
H    -1.559000000    -1.563000000    -5.241000000
C    -1.720000000    -0.069000000    -8.318000000
H    -2.421000000     0.563000000    -8.858000000
C    -0.523000000    -0.619000000    -8.831000000
H    -0.160000000    -0.410000000    -9.834000000
C     0.284000000    -1.503000000    -8.042000000
H     1.082000000    -2.050000000    -8.537000000
C    -0.168000000    -1.935000000    -6.750000000
O     0.508000000    -2.957000000    -6.079000000
C     1.429000000    -2.813000000    -5.034000000
C     1.983000000    -3.968000000    -4.425000000
H     1.780000000    -4.966000000    -4.805000000
C     2.842000000    -3.837000000    -3.357000000
O     3.347000000    -5.007000000    -2.854000000
C     3.958000000    -5.082000000    -1.631000000
C     5.376000000    -5.017000000    -1.654000000
H     5.888000000    -4.804000000    -2.589000000
C     6.103000000    -5.136000000    -0.428000000
H     7.179000000    -5.018000000    -0.331000000
C     5.391000000    -5.312000000     0.748000000
H     5.948000000    -5.570000000     1.645000000
C     3.982000000    -5.487000000     0.773000000
C     3.299000000    -5.364000000    -0.431000000
H     2.220000000    -5.439000000    -0.534000000
C    -1.501000000    -1.052000000    -1.653000000
H    -1.992000000    -1.166000000    -2.616000000
C    -0.194000000    -0.460000000    -1.501000000
H     0.250000000    -0.113000000    -2.431000000
C     0.369000000    -0.395000000    -0.218000000
H     1.382000000     0.027000000    -0.196000000
C    -0.274000000    -1.032000000     0.822000000
H     0.176000000    -1.129000000     1.807000000
C    -1.419000000    -1.703000000     0.658000000
H    -1.929000000    -1.929000000     1.591000000
C    -2.134000000    -1.678000000    -0.567000000
C    -3.380000000    -2.527000000    -0.771000000
O    -3.601000000    -3.284000000     0.160000000
O    -3.888000000    -2.759000000    -1.852000000
O    -0.221000000    -3.730000000    -1.652000000
H     0.030000000    -2.819000000    -1.497000000
H    -0.780000000    -3.695000000    -2.428000000
O    -9.592000000    -1.248000000    -0.705000000
H    -8.818000000    -1.809000000    -0.739000000
H    -9.963000000    -1.297000000    -1.586000000
O    -7.440000000    -2.856000000    -0.783000000
H    -7.139000000    -3.389000000    -0.048000000
H    -7.013000000    -3.241000000    -1.549000000
O    -5.944000000    -3.433000000    -3.430000000
H    -5.507000000    -3.926000000    -4.125000000
H    -5.245000000    -3.220000000    -2.812000000
O    -6.060000000    -3.881000000     1.130000000
H    -6.016000000    -4.001000000     2.079000000
H    -5.195000000    -3.549000000     0.891000000
O    -0.948000000    -5.464000000    -5.488000000
H    -0.279000000    -4.875000000    -5.839000000
H    -1.193000000    -5.075000000    -4.649000000
O    -1.675000000    -4.660000000     1.679000000
H    -1.122000000    -5.167000000     1.085000000
H    -2.051000000    -3.972000000     1.129000000
O    -3.030000000    -7.670000000     0.230000000
H    -3.918000000    -7.978000000     0.051000000
H    -2.986000000    -6.810000000    -0.187000000
O    -2.414000000    -3.590000000    -3.875000000
H    -3.037000000    -3.199000000    -3.263000000
H    -2.931000000    -4.224000000    -4.371000000
O    -8.347000000    -1.953000000     2.558000000
H    -8.379000000    -1.213000000     1.952000000
H    -7.998000000    -1.583000000     3.369000000
O    -3.212000000    -5.401000000    -1.283000000
H    -3.073000000    -5.064000000    -2.168000000
H    -3.568000000    -4.657000000    -0.797000000
O    -0.384000000    -6.199000000    -0.633000000
H    -1.233000000    -6.119000000    -1.069000000
H    -0.053000000    -5.302000000    -0.587000000
O    -4.256000000    -5.180000000     2.929000000
H    -3.697000000    -4.641000000     2.369000000
H    -3.728000000    -5.956000000     3.119000000
O    -6.136000000    -6.562000000     0.600000000
H    -5.338000000    -6.773000000     1.084000000
H    -6.254000000    -5.621000000     0.730000000
O    -1.027000000    -6.886000000     3.935000000
H    -1.845000000    -7.383000000     3.939000000
H    -1.221000000    -6.109000000     3.410000000
O    -8.139000000    -2.116000000    -4.624000000
H    -7.337000000    -2.165000000    -4.104000000
H    -8.118000000    -1.242000000    -5.015000000
O    -4.342000000    -5.565000000    -5.015000000
H    -4.668000000    -5.781000000    -5.889000000
H    -4.791000000    -6.177000000    -4.433000000
O    -5.942000000    -6.424000000    -2.836000000
H    -6.859000000    -6.446000000    -3.108000000
H    -5.958000000    -6.003000000    -1.976000000
O    -8.400000000    -4.741000000    -4.642000000
H    -8.061000000    -3.896000000    -4.347000000
H    -9.225000000    -4.529000000    -5.079000000
