215
-1456.35507
C    -5.253000000    -0.829000000     1.863000000
H    -5.645000000     0.021000000     1.310000000
C    -4.095000000    -0.849000000     2.709000000
C    -3.769000000    -1.999000000     3.457000000
H    -2.887000000    -2.013000000     4.093000000
C    -3.322000000     0.436000000     2.852000000
O    -4.159000000     1.517000000     2.444000000
H    -2.506000000     0.392000000     2.116000000
O    -2.860000000     0.670000000     4.152000000
C    -1.587000000     1.187000000     4.274000000
C    -0.569000000     0.305000000     4.463000000
H    -0.733000000    -0.723000000     4.773000000
C     0.764000000     0.689000000     4.465000000
O     1.775000000    -0.291000000     4.423000000
C     1.120000000     2.028000000     4.157000000
C     2.533000000     2.487000000     4.151000000
H     2.525000000     3.541000000     4.434000000
C     3.193000000     2.323000000     2.792000000
C     3.101000000     3.291000000     1.839000000
H     2.519000000     4.154000000     2.151000000
H     3.027000000     1.903000000     4.931000000
C     0.075000000     2.969000000     3.989000000
H     0.330000000     4.025000000     3.963000000
C    -1.309000000     2.524000000     4.032000000
C    -2.386000000     3.550000000     3.741000000
H    -1.941000000     4.529000000     3.935000000
H    -3.224000000     3.375000000     4.418000000
C    -2.718000000     3.585000000     2.247000000
C    -2.122000000     4.456000000     1.347000000
H    -1.372000000     5.128000000     1.755000000
C    -3.627000000     2.576000000     1.700000000
C    -3.723000000     2.429000000     0.303000000
H    -4.327000000     1.619000000    -0.098000000
C    -3.110000000     3.335000000    -0.531000000
O    -3.301000000     3.117000000    -1.860000000
C    -2.225000000     2.372000000    -2.453000000
C    -2.721000000     1.215000000    -3.342000000
C    -1.973000000     0.740000000    -4.441000000
H    -0.987000000     1.138000000    -4.670000000
C    -3.839000000     0.479000000    -3.021000000
H    -4.365000000     0.662000000    -2.087000000
O    -1.357000000     3.207000000    -3.189000000
H    -1.574000000     1.928000000    -1.685000000
C    -2.293000000     4.351000000     0.006000000
C    -1.478000000     5.218000000    -0.975000000
H    -1.087000000     6.099000000    -0.462000000
H    -2.049000000     5.684000000    -1.781000000
C    -0.190000000     4.530000000    -1.518000000
C     1.004000000     4.727000000    -0.862000000
H     1.111000000     5.314000000     0.047000000
C    -0.197000000     3.733000000    -2.659000000
C     1.044000000     3.158000000    -3.185000000
H     1.038000000     2.422000000    -3.986000000
C     2.132000000     3.308000000    -2.396000000
O     3.194000000     2.550000000    -2.739000000
C     3.561000000     1.432000000    -1.967000000
C     3.991000000     0.257000000    -2.872000000
C     3.362000000     0.056000000    -4.132000000
H     2.549000000     0.665000000    -4.519000000
C     4.966000000    -0.698000000    -2.407000000
H     5.506000000    -0.562000000    -1.474000000
O     4.636000000     1.737000000    -0.998000000
H     2.697000000     1.148000000    -1.347000000
C     2.213000000     4.085000000    -1.251000000
C     3.508000000     4.293000000    -0.407000000
H     3.480000000     5.251000000     0.117000000
H     4.333000000     4.184000000    -1.114000000
C     3.639000000     3.156000000     0.596000000
C     4.259000000     1.969000000     0.303000000
C     4.430000000     0.982000000     1.200000000
H     5.047000000     0.110000000     0.998000000
C     3.843000000     1.130000000     2.425000000
O     3.766000000     0.077000000     3.225000000
C     2.470000000    -0.640000000     3.187000000
H     1.847000000    -0.179000000     2.406000000
C     2.552000000    -2.144000000     2.892000000
C     1.488000000    -2.960000000     3.245000000
H     0.594000000    -2.603000000     3.749000000
C     3.638000000    -2.702000000     2.156000000
H     4.445000000    -2.044000000     1.843000000
C     3.579000000    -4.080000000     1.870000000
O     4.552000000    -4.689000000     1.114000000
C     2.624000000    -4.916000000     2.347000000
H     2.653000000    -5.980000000     2.123000000
C     1.626000000    -4.327000000     3.047000000
O     0.571000000    -5.190000000     3.394000000
C    -0.468000000    -4.850000000     4.140000000
C    -1.772000000    -4.734000000     3.642000000
H    -1.952000000    -4.871000000     2.579000000
C    -0.268000000    -4.641000000     5.510000000
H     0.741000000    -4.781000000     5.890000000
C    -1.322000000    -4.269000000     6.361000000
H    -1.154000000    -4.084000000     7.419000000
C    -2.629000000    -4.144000000     5.815000000
H    -3.413000000    -3.862000000     6.514000000
C    -2.829000000    -4.409000000     4.440000000
O    -4.120000000    -4.330000000     3.911000000
C    -4.553000000    -3.159000000     3.371000000
C    -5.616000000    -3.129000000     2.456000000
H    -6.172000000    -4.048000000     2.285000000
C    -5.938000000    -2.041000000     1.697000000
O    -7.031000000    -2.173000000     0.803000000
C    -7.112000000    -1.281000000    -0.252000000
C    -6.295000000    -1.553000000    -1.335000000
H    -5.632000000    -2.412000000    -1.269000000
C    -7.908000000    -0.078000000    -0.257000000
H    -8.499000000     0.178000000     0.619000000
C    -7.956000000     0.754000000    -1.429000000
H    -8.464000000     1.709000000    -1.318000000
C    -7.149000000     0.405000000    -2.535000000
H    -7.251000000     0.950000000    -3.470000000
C    -6.300000000    -0.711000000    -2.418000000
O    -5.551000000    -1.008000000    -3.507000000
C    -4.341000000    -0.463000000    -3.869000000
C    -3.695000000    -0.886000000    -5.034000000
H    -4.177000000    -1.643000000    -5.646000000
C    -2.456000000    -0.351000000    -5.300000000
O    -1.711000000    -0.757000000    -6.391000000
C    -0.383000000    -0.337000000    -6.662000000
C     0.704000000    -1.000000000    -6.110000000
H     0.533000000    -1.869000000    -5.480000000
C    -0.266000000     0.755000000    -7.490000000
H    -1.128000000     1.273000000    -7.903000000
C     1.094000000     1.104000000    -7.871000000
H     1.251000000     2.012000000    -8.447000000
C     2.188000000     0.378000000    -7.383000000
H     3.225000000     0.603000000    -7.617000000
C     1.975000000    -0.642000000    -6.461000000
O     2.985000000    -1.429000000    -5.949000000
C     3.686000000    -1.117000000    -4.823000000
C     4.698000000    -1.967000000    -4.377000000
H     4.913000000    -2.841000000    -4.987000000
C     5.371000000    -1.732000000    -3.181000000
O     6.393000000    -2.501000000    -2.728000000
C     6.563000000    -2.883000000    -1.431000000
C     7.793000000    -2.900000000    -0.866000000
H     8.620000000    -2.407000000    -1.371000000
C     8.014000000    -3.488000000     0.374000000
H     9.021000000    -3.554000000     0.779000000
C     6.920000000    -4.036000000     1.042000000
H     7.047000000    -4.526000000     2.004000000
C     5.643000000    -4.027000000     0.491000000
C     5.497000000    -3.535000000    -0.801000000
H     4.594000000    -3.719000000    -1.378000000
C    -0.157000000    -1.439000000    -1.973000000
H     0.254000000    -1.652000000    -2.956000000
C     0.174000000    -0.265000000    -1.392000000
H     0.693000000     0.461000000    -2.013000000
C    -0.187000000    -0.099000000    -0.037000000
H     0.130000000     0.706000000     0.596000000
C    -0.934000000    -1.145000000     0.604000000
H    -1.238000000    -0.955000000     1.630000000
C    -1.347000000    -2.330000000    -0.016000000
H    -1.895000000    -3.103000000     0.516000000
C    -0.906000000    -2.473000000    -1.338000000
C    -1.193000000    -3.756000000    -2.112000000
O    -1.948000000    -4.557000000    -1.555000000
O    -0.752000000    -3.934000000    -3.243000000
O     1.507000000    -7.844000000    -2.578000000
H     2.285000000    -8.035000000    -3.102000000
H     1.036000000    -7.179000000    -3.081000000
O     2.424000000    -2.368000000    -0.598000000
H     2.568000000    -2.476000000     0.342000000
H     1.790000000    -1.653000000    -0.662000000
O    -5.860000000    -3.629000000    -5.848000000
H    -6.473000000    -4.180000000    -5.362000000
H    -4.995000000    -3.925000000    -5.563000000
O    -2.474000000    -6.741000000    -2.710000000
H    -2.840000000    -7.200000000    -1.954000000
H    -2.095000000    -5.942000000    -2.345000000
O    -0.167000000    -7.289000000     1.631000000
H     0.320000000    -7.817000000     2.264000000
H     0.005000000    -6.385000000     1.892000000
O    -2.115000000    -9.653000000    -4.021000000
H    -1.690000000    -8.860000000    -3.692000000
H    -1.829000000    -9.718000000    -4.932000000
O    -4.643000000    -4.561000000    -1.898000000
H    -3.739000000    -4.458000000    -1.600000000
H    -4.594000000    -4.467000000    -2.849000000
O    -5.342000000    -6.510000000     0.374000000
H    -5.439000000    -5.962000000    -0.405000000
H    -4.436000000    -6.372000000     0.652000000
O    -0.507000000    -7.080000000    -7.349000000
H    -0.350000000    -6.457000000    -6.639000000
H    -0.312000000    -6.589000000    -8.147000000
O     1.905000000    -4.136000000    -2.870000000
H     0.987000000    -3.912000000    -3.019000000
H     2.187000000    -3.541000000    -2.175000000
O     0.231000000    -5.349000000    -5.354000000
H    -0.166000000    -4.782000000    -4.692000000
H     1.141000000    -5.444000000    -5.072000000
O    -2.702000000    -3.362000000    -7.318000000
H    -1.807000000    -3.224000000    -7.627000000
H    -3.190000000    -2.608000000    -7.650000000
O    -7.239000000    -4.922000000    -2.466000000
H    -7.819000000    -4.193000000    -2.686000000
H    -6.427000000    -4.503000000    -2.178000000
O    -0.656000000    -8.570000000    -0.804000000
H     0.084000000    -8.165000000    -1.257000000
H    -0.616000000    -8.216000000     0.084000000
O     2.957000000    -5.920000000    -4.756000000
H     3.323000000    -5.389000000    -5.463000000
H     2.838000000    -5.306000000    -4.031000000
O    -2.685000000    -5.996000000     0.582000000
H    -2.092000000    -6.696000000     0.854000000
H    -2.194000000    -5.510000000    -0.081000000
O     2.392000000    -8.441000000     0.031000000
H     3.204000000    -7.937000000    -0.015000000
H     1.939000000    -8.241000000    -0.788000000
O    -3.411000000    -3.915000000    -4.499000000
H    -2.574000000    -4.005000000    -4.044000000
H    -3.174000000    -3.640000000    -5.385000000
O    -4.507000000    -6.686000000    -4.620000000
H    -3.734000000    -6.451000000    -4.106000000
H    -4.191000000    -6.730000000    -5.522000000
