215
-1454.01692
C    -5.273000000    -1.106000000     0.972000000
H    -5.579000000    -0.244000000     0.385000000
C    -4.134000000    -1.065000000     1.817000000
C    -3.691000000    -2.175000000     2.474000000
H    -2.912000000    -2.128000000     3.230000000
C    -3.522000000     0.284000000     2.087000000
O    -4.420000000     1.380000000     1.938000000
H    -2.666000000     0.546000000     1.448000000
O    -3.046000000     0.327000000     3.522000000
C    -1.937000000     0.881000000     3.932000000
C    -0.902000000     0.084000000     4.288000000
H    -1.185000000    -0.962000000     4.363000000
C     0.366000000     0.602000000     4.603000000
O     1.390000000    -0.309000000     4.773000000
C     0.569000000     2.009000000     4.469000000
C     1.975000000     2.603000000     4.620000000
H     1.858000000     3.657000000     4.880000000
C     2.849000000     2.437000000     3.385000000
C     2.851000000     3.489000000     2.457000000
H     2.175000000     4.320000000     2.638000000
H     2.446000000     2.086000000     5.458000000
C    -0.508000000     2.833000000     4.096000000
H    -0.227000000     3.881000000     4.159000000
C    -1.782000000     2.295000000     3.925000000
C    -2.876000000     3.278000000     3.532000000
H    -2.780000000     4.287000000     3.940000000
H    -3.777000000     2.922000000     4.036000000
C    -3.113000000     3.392000000     1.977000000
C    -2.445000000     4.362000000     1.273000000
H    -1.763000000     5.021000000     1.805000000
C    -3.991000000     2.486000000     1.297000000
C    -4.140000000     2.553000000    -0.075000000
H    -4.684000000     1.841000000    -0.691000000
C    -3.360000000     3.477000000    -0.808000000
O    -3.372000000     3.232000000    -2.153000000
C    -2.273000000     2.619000000    -2.686000000
C    -2.546000000     1.579000000    -3.782000000
C    -1.818000000     1.511000000    -4.968000000
H    -1.074000000     2.227000000    -5.306000000
C    -3.526000000     0.575000000    -3.520000000
H    -4.093000000     0.658000000    -2.596000000
O    -1.267000000     3.628000000    -3.129000000
H    -1.854000000     1.952000000    -1.918000000
C    -2.461000000     4.355000000    -0.112000000
C    -1.592000000     5.338000000    -0.882000000
H    -1.483000000     6.242000000    -0.279000000
H    -2.034000000     5.578000000    -1.851000000
C    -0.254000000     4.704000000    -1.217000000
C     0.864000000     4.881000000    -0.406000000
H     0.844000000     5.581000000     0.425000000
C    -0.182000000     3.876000000    -2.353000000
C     1.038000000     3.213000000    -2.598000000
H     1.123000000     2.624000000    -3.508000000
C     2.191000000     3.487000000    -1.802000000
O     3.400000000     2.862000000    -2.171000000
C     3.743000000     1.631000000    -1.446000000
C     4.310000000     0.543000000    -2.356000000
C     3.700000000     0.353000000    -3.560000000
H     2.932000000     1.052000000    -3.880000000
C     5.294000000    -0.346000000    -1.847000000
H     5.830000000    -0.123000000    -0.928000000
O     4.616000000     2.028000000    -0.389000000
H     2.847000000     1.189000000    -0.986000000
C     2.063000000     4.333000000    -0.708000000
C     3.193000000     4.581000000     0.275000000
H     2.914000000     5.422000000     0.913000000
H     4.113000000     4.794000000    -0.272000000
C     3.417000000     3.441000000     1.240000000
C     4.068000000     2.283000000     0.837000000
C     4.075000000     1.204000000     1.774000000
H     4.672000000     0.333000000     1.518000000
C     3.453000000     1.308000000     3.019000000
O     3.403000000     0.129000000     3.756000000
C     2.182000000    -0.654000000     3.651000000
H     1.793000000    -0.318000000     2.679000000
C     2.435000000    -2.186000000     3.538000000
C     1.527000000    -3.076000000     4.112000000
H     0.710000000    -2.862000000     4.796000000
C     3.499000000    -2.631000000     2.743000000
H     4.164000000    -1.874000000     2.336000000
C     3.577000000    -3.984000000     2.397000000
O     4.560000000    -4.503000000     1.597000000
C     2.673000000    -4.923000000     2.952000000
H     2.722000000    -6.002000000     2.825000000
C     1.682000000    -4.393000000     3.770000000
O     0.709000000    -5.308000000     4.242000000
C    -0.605000000    -5.004000000     4.364000000
C    -1.618000000    -4.905000000     3.433000000
H    -1.233000000    -5.063000000     2.428000000
C    -1.042000000    -4.813000000     5.703000000
H    -0.348000000    -4.925000000     6.532000000
C    -2.375000000    -4.732000000     6.014000000
H    -2.705000000    -4.683000000     7.049000000
C    -3.382000000    -4.632000000     5.029000000
H    -4.409000000    -4.471000000     5.346000000
C    -2.947000000    -4.708000000     3.727000000
O    -3.918000000    -4.615000000     2.793000000
C    -4.321000000    -3.433000000     2.193000000
C    -5.346000000    -3.475000000     1.338000000
H    -5.789000000    -4.460000000     1.212000000
C    -5.819000000    -2.373000000     0.728000000
O    -6.918000000    -2.481000000    -0.085000000
C    -6.818000000    -1.860000000    -1.314000000
C    -5.729000000    -1.843000000    -2.204000000
H    -4.849000000    -2.393000000    -1.880000000
C    -7.965000000    -1.241000000    -1.776000000
H    -8.849000000    -1.344000000    -1.152000000
C    -7.964000000    -0.668000000    -3.035000000
H    -8.909000000    -0.194000000    -3.285000000
C    -6.876000000    -0.723000000    -3.910000000
H    -6.994000000    -0.279000000    -4.895000000
C    -5.750000000    -1.311000000    -3.442000000
O    -4.658000000    -1.435000000    -4.305000000
C    -3.711000000    -0.439000000    -4.445000000
C    -2.800000000    -0.582000000    -5.495000000
H    -2.934000000    -1.357000000    -6.245000000
C    -1.915000000     0.392000000    -5.816000000
O    -0.985000000     0.027000000    -6.851000000
C     0.309000000     0.318000000    -6.746000000
C     1.186000000    -0.595000000    -6.149000000
H     0.829000000    -1.575000000    -5.842000000
C     0.880000000     1.560000000    -7.200000000
H     0.165000000     2.289000000    -7.572000000
C     2.278000000     1.788000000    -7.271000000
H     2.759000000     2.628000000    -7.765000000
C     3.076000000     0.837000000    -6.675000000
H     4.146000000     0.886000000    -6.860000000
C     2.560000000    -0.322000000    -6.158000000
O     3.381000000    -1.139000000    -5.437000000
C     4.020000000    -0.800000000    -4.236000000
C     5.026000000    -1.661000000    -3.763000000
H     5.310000000    -2.528000000    -4.353000000
C     5.656000000    -1.511000000    -2.537000000
O     6.640000000    -2.358000000    -2.070000000
C     6.690000000    -2.877000000    -0.841000000
C     7.933000000    -3.086000000    -0.229000000
H     8.847000000    -2.794000000    -0.740000000
C     8.029000000    -3.657000000     1.048000000
H     9.036000000    -3.872000000     1.398000000
C     6.855000000    -4.005000000     1.637000000
H     6.930000000    -4.418000000     2.640000000
C     5.597000000    -3.820000000     1.030000000
C     5.491000000    -3.288000000    -0.215000000
H     4.581000000    -3.442000000    -0.789000000
C    -0.618000000    -1.220000000    -2.545000000
H    -0.866000000    -1.320000000    -3.599000000
C     0.155000000    -0.096000000    -2.127000000
H     0.618000000     0.540000000    -2.878000000
C     0.222000000     0.200000000    -0.764000000
H     0.529000000     1.227000000    -0.464000000
C    -0.279000000    -0.601000000     0.161000000
H    -0.270000000    -0.244000000     1.188000000
C    -0.999000000    -1.755000000    -0.237000000
H    -1.601000000    -2.319000000     0.472000000
C    -1.195000000    -2.090000000    -1.585000000
C    -2.036000000    -3.276000000    -2.026000000
O    -2.916000000    -3.823000000    -1.387000000
O    -1.666000000    -3.799000000    -3.082000000
O     1.627000000    -3.836000000    -0.144000000
H     1.188000000    -2.998000000     0.003000000
H     1.646000000    -3.932000000    -1.096000000
O     2.192000000    -3.715000000    -2.629000000
H     1.682000000    -2.973000000    -2.955000000
H     2.563000000    -4.114000000    -3.416000000
O    -5.304000000    -3.789000000    -5.800000000
H    -4.564000000    -4.374000000    -5.641000000
H    -5.195000000    -3.085000000    -5.161000000
O     0.183000000    -5.864000000    -2.524000000
H     1.013000000    -5.414000000    -2.684000000
H    -0.481000000    -5.180000000    -2.608000000
O    -4.995000000    -7.419000000     2.488000000
H    -4.192000000    -7.012000000     2.162000000
H    -5.100000000    -7.066000000     3.372000000
O    -1.797000000    -7.711000000     2.078000000
H    -1.967000000    -7.060000000     1.398000000
H    -1.903000000    -8.553000000     1.636000000
O    -3.154000000    -5.148000000    -5.132000000
H    -2.863000000    -4.588000000    -4.412000000
H    -2.346000000    -5.500000000    -5.504000000
O    -4.478000000    -8.158000000    -1.389000000
H    -4.433000000    -8.060000000    -2.340000000
H    -5.399000000    -8.009000000    -1.176000000
O     0.215000000    -3.801000000    -4.825000000
H    -0.384000000    -3.693000000    -4.086000000
H    -0.189000000    -4.482000000    -5.362000000
O    -2.325000000    -9.484000000    -0.302000000
H    -1.726000000    -9.060000000    -0.917000000
H    -3.196000000    -9.218000000    -0.595000000
O    -0.672000000    -5.871000000    -6.372000000
H    -0.244000000    -5.661000000    -7.203000000
H    -0.730000000    -6.826000000    -6.367000000
O     0.153000000    -3.462000000    -8.119000000
H    -0.596000000    -3.204000000    -7.582000000
H     0.621000000    -2.643000000    -8.285000000
O    -4.173000000    -8.035000000    -4.244000000
H    -3.317000000    -7.633000000    -4.391000000
H    -4.022000000    -8.972000000    -4.372000000
O    -4.828000000    -5.234000000    -2.622000000
H    -4.412000000    -5.630000000    -3.388000000
H    -4.139000000    -4.703000000    -2.223000000
O     1.666000000    -6.443000000     0.082000000
H     0.867000000    -6.446000000    -0.445000000
H     1.735000000    -5.546000000     0.407000000
O     2.705000000    -4.406000000    -5.626000000
H     2.623000000    -5.354000000    -5.732000000
H     1.824000000    -4.113000000    -5.397000000
O    -3.191000000    -5.958000000     0.208000000
H    -3.710000000    -6.407000000    -0.460000000
H    -3.108000000    -5.061000000    -0.117000000
O    -0.451000000    -8.437000000    -2.126000000
H    -0.408000000    -7.495000000    -2.289000000
H    -0.416000000    -8.833000000    -2.996000000
O    -7.478000000    -5.524000000    -1.313000000
H    -7.830000000    -5.853000000    -2.140000000
H    -6.767000000    -4.938000000    -1.572000000
