215
-1444.97748
C    -2.120000000    -1.816000000    -4.494000000
H    -1.240000000    -2.451000000    -4.417000000
C    -1.798000000    -0.447000000    -4.433000000
C    -2.849000000     0.457000000    -4.416000000
H    -2.676000000     1.515000000    -4.236000000
C    -0.381000000    -0.051000000    -4.171000000
O     0.590000000    -0.963000000    -4.698000000
H    -0.238000000    -0.072000000    -3.080000000
O    -0.100000000     1.284000000    -4.697000000
C     0.564000000     2.234000000    -3.942000000
C    -0.131000000     3.091000000    -3.126000000
H    -1.212000000     3.173000000    -3.192000000
C     0.519000000     3.782000000    -2.149000000
O    -0.245000000     4.489000000    -1.272000000
C     1.915000000     3.853000000    -2.117000000
C     2.715000000     4.760000000    -1.112000000
H     3.756000000     4.899000000    -1.411000000
C     2.774000000     4.162000000     0.266000000
C     3.805000000     3.246000000     0.595000000
H     4.500000000     2.947000000    -0.186000000
H     2.387000000     5.801000000    -1.116000000
C     2.611000000     3.055000000    -2.965000000
H     3.692000000     3.168000000    -2.985000000
C     1.973000000     2.220000000    -3.824000000
C     2.695000000     1.091000000    -4.563000000
H     3.741000000     1.403000000    -4.589000000
H     2.338000000     0.984000000    -5.589000000
C     2.740000000    -0.277000000    -3.808000000
C     3.898000000    -0.593000000    -3.003000000
H     4.722000000     0.094000000    -2.826000000
C     1.798000000    -1.224000000    -3.985000000
C     1.981000000    -2.489000000    -3.497000000
H     1.237000000    -3.248000000    -3.723000000
C     3.018000000    -2.767000000    -2.615000000
O     2.949000000    -3.835000000    -1.788000000
C     2.348000000    -3.495000000    -0.553000000
C     1.182000000    -4.491000000    -0.201000000
C     0.838000000    -4.776000000     1.145000000
H     1.437000000    -4.181000000     1.829000000
C     0.363000000    -5.104000000    -1.175000000
H     0.523000000    -4.882000000    -2.227000000
O     3.239000000    -3.560000000     0.553000000
H     1.948000000    -2.476000000    -0.663000000
C     3.996000000    -1.852000000    -2.368000000
C     5.057000000    -2.079000000    -1.341000000
H     5.980000000    -1.531000000    -1.542000000
H     5.274000000    -3.146000000    -1.262000000
C     4.660000000    -1.653000000     0.049000000
C     5.051000000    -0.345000000     0.477000000
H     5.450000000     0.348000000    -0.258000000
C     3.853000000    -2.397000000     0.924000000
C     3.445000000    -1.897000000     2.199000000
H     2.801000000    -2.458000000     2.871000000
C     3.816000000    -0.597000000     2.567000000
O     3.254000000    -0.163000000     3.742000000
C     2.097000000     0.692000000     3.718000000
C     1.152000000     0.230000000     4.774000000
C     1.146000000    -1.120000000     5.181000000
H     1.912000000    -1.854000000     4.943000000
C     0.139000000     1.064000000     5.183000000
H    -0.013000000     2.042000000     4.734000000
O     2.565000000     2.009000000     3.904000000
H     1.585000000     0.512000000     2.762000000
C     4.572000000     0.181000000     1.686000000
C     4.993000000     1.561000000     2.103000000
H     5.910000000     1.873000000     1.599000000
H     5.200000000     1.578000000     3.175000000
C     3.905000000     2.589000000     1.820000000
C     2.815000000     2.798000000     2.715000000
C     1.800000000     3.742000000     2.499000000
H     1.004000000     3.736000000     3.239000000
C     1.744000000     4.341000000     1.253000000
O     0.616000000     5.042000000     0.854000000
C    -0.314000000     4.194000000     0.128000000
H    -0.166000000     3.120000000     0.312000000
C    -1.761000000     4.327000000     0.528000000
C    -2.778000000     4.154000000    -0.488000000
H    -2.564000000     3.868000000    -1.515000000
C    -2.152000000     4.673000000     1.817000000
H    -1.375000000     4.928000000     2.533000000
C    -3.484000000     4.599000000     2.191000000
O    -3.808000000     4.730000000     3.503000000
C    -4.473000000     4.231000000     1.240000000
H    -5.534000000     4.197000000     1.471000000
C    -4.112000000     3.999000000    -0.063000000
O    -5.113000000     3.602000000    -0.920000000
C    -5.099000000     3.640000000    -2.318000000
C    -5.081000000     2.402000000    -2.917000000
H    -5.139000000     1.481000000    -2.343000000
C    -4.840000000     4.784000000    -3.044000000
H    -4.659000000     5.731000000    -2.544000000
C    -4.826000000     4.760000000    -4.456000000
H    -4.564000000     5.670000000    -4.991000000
C    -5.003000000     3.484000000    -5.124000000
H    -5.049000000     3.408000000    -6.208000000
C    -5.066000000     2.334000000    -4.296000000
O    -5.112000000     1.018000000    -4.761000000
C    -4.101000000     0.093000000    -4.698000000
C    -4.436000000    -1.243000000    -4.955000000
H    -5.434000000    -1.613000000    -5.178000000
C    -3.465000000    -2.195000000    -4.705000000
O    -3.817000000    -3.520000000    -4.978000000
C    -2.928000000    -4.501000000    -4.712000000
C    -2.635000000    -4.871000000    -3.396000000
H    -3.175000000    -4.424000000    -2.565000000
C    -2.369000000    -5.209000000    -5.773000000
H    -2.568000000    -4.905000000    -6.797000000
C    -1.540000000    -6.312000000    -5.487000000
H    -1.129000000    -6.876000000    -6.321000000
C    -1.251000000    -6.663000000    -4.165000000
H    -0.553000000    -7.461000000    -3.925000000
C    -1.809000000    -5.937000000    -3.137000000
O    -1.665000000    -6.392000000    -1.806000000
C    -0.782000000    -5.853000000    -0.845000000
C    -1.126000000    -5.950000000     0.493000000
H    -2.078000000    -6.361000000     0.820000000
C    -0.293000000    -5.552000000     1.494000000
O    -0.726000000    -5.762000000     2.769000000
C     0.053000000    -5.431000000     3.900000000
C    -0.343000000    -4.366000000     4.695000000
H    -1.185000000    -3.731000000     4.428000000
C     1.298000000    -6.009000000     4.056000000
H     1.578000000    -6.761000000     3.322000000
C     2.213000000    -5.467000000     4.967000000
H     3.194000000    -5.910000000     5.118000000
C     1.787000000    -4.418000000     5.821000000
H     2.492000000    -4.116000000     6.591000000
C     0.524000000    -3.885000000     5.658000000
O     0.175000000    -2.892000000     6.478000000
C     0.183000000    -1.586000000     6.014000000
C    -0.866000000    -0.757000000     6.415000000
H    -1.608000000    -1.152000000     7.104000000
C    -0.920000000     0.559000000     5.956000000
O    -2.054000000     1.295000000     6.332000000
C    -2.258000000     2.608000000     6.045000000
C    -1.816000000     3.558000000     6.911000000
H    -1.327000000     3.132000000     7.783000000
C    -2.088000000     4.922000000     6.711000000
H    -1.778000000     5.703000000     7.399000000
C    -2.746000000     5.281000000     5.487000000
H    -2.972000000     6.333000000     5.334000000
C    -3.005000000     4.346000000     4.535000000
C    -2.959000000     2.998000000     4.921000000
H    -3.242000000     2.119000000     4.348000000
C    -1.117000000    -1.606000000     1.023000000
H    -1.290000000    -2.325000000     1.819000000
C     0.189000000    -1.288000000     0.835000000
H     0.877000000    -1.814000000     1.493000000
C     0.581000000    -0.386000000    -0.118000000
H     1.540000000    -0.048000000    -0.114000000
C    -0.396000000     0.306000000    -0.857000000
H    -0.032000000     1.106000000    -1.497000000
C    -1.723000000    -0.056000000    -0.667000000
H    -2.525000000     0.544000000    -1.090000000
C    -2.091000000    -1.003000000     0.238000000
C    -3.573000000    -1.288000000     0.421000000
O    -4.380000000    -0.814000000    -0.308000000
O    -3.939000000    -1.947000000     1.336000000
O    -5.284000000    -0.024000000     2.629000000
H    -5.619000000     0.469000000     1.880000000
H    -4.837000000    -0.776000000     2.241000000
O    -3.591000000    -4.546000000     1.591000000
H    -3.856000000    -3.640000000     1.433000000
H    -2.795000000    -4.475000000     2.118000000
O    -5.588000000    -5.158000000    -0.535000000
H    -5.747000000    -6.100000000    -0.472000000
H    -4.655000000    -5.060000000    -0.343000000
O    -7.805000000    -4.907000000     1.887000000
H    -7.717000000    -3.996000000     1.605000000
H    -6.931000000    -5.279000000     1.771000000
O    -7.948000000     3.501000000     0.332000000
H    -7.477000000     2.668000000     0.363000000
H    -7.261000000     4.163000000     0.267000000
O    -6.337000000    -1.546000000    -1.907000000
H    -6.085000000    -1.755000000    -2.807000000
H    -5.528000000    -1.240000000    -1.496000000
O    -6.328000000     1.071000000     0.355000000
H    -7.039000000     0.603000000    -0.083000000
H    -5.531000000     0.732000000    -0.051000000
O    -5.619000000    -6.434000000     2.318000000
H    -5.045000000    -7.196000000     2.394000000
H    -5.058000000    -5.746000000     1.961000000
O    -7.947000000     0.636000000    -4.138000000
H    -8.171000000     1.216000000    -4.866000000
H    -7.039000000     0.383000000    -4.304000000
O    -5.487000000    -2.179000000     6.838000000
H    -4.840000000    -2.243000000     6.136000000
H    -5.395000000    -2.999000000     7.324000000
O    -8.592000000     0.151000000    -0.964000000
H    -9.487000000     0.418000000    -1.172000000
H    -8.253000000    -0.210000000    -1.784000000
O    -6.621000000    -2.352000000     0.801000000
H    -6.686000000    -2.151000000    -0.133000000
H    -5.714000000    -2.145000000     1.028000000
O    -9.086000000    -1.625000000     0.792000000
H    -8.171000000    -1.876000000     0.921000000
H    -9.056000000    -0.953000000     0.111000000
O    -5.575000000     0.386000000     5.240000000
H    -5.396000000    -0.473000000     5.622000000
H    -5.522000000     0.244000000     4.295000000
O    -5.504000000    -4.568000000     4.463000000
H    -6.305000000    -4.053000000     4.556000000
H    -5.743000000    -5.279000000     3.869000000
O    -6.885000000    -4.439000000    -2.972000000
H    -6.595000000    -5.260000000    -3.370000000
H    -6.774000000    -4.577000000    -2.031000000
O    -9.502000000     0.778000000     2.741000000
H    -9.306000000     1.114000000     3.616000000
H    -8.644000000     0.595000000     2.358000000
O    -3.924000000    -2.316000000     4.517000000
H    -3.814000000    -1.920000000     3.652000000
H    -4.196000000    -3.215000000     4.336000000
O    -8.920000000    -2.942000000    -1.636000000
H    -9.224000000    -2.834000000    -0.735000000
H    -8.052000000    -2.537000000    -1.646000000
