215
-1471.14984
C    -3.959000000    -2.232000000     0.907000000
H    -4.169000000    -1.434000000     0.200000000
C    -3.569000000    -1.900000000     2.209000000
C    -3.079000000    -2.971000000     2.983000000
H    -2.684000000    -2.803000000     3.982000000
C    -3.406000000    -0.431000000     2.618000000
O    -4.476000000     0.325000000     1.980000000
H    -2.483000000    -0.193000000     2.068000000
O    -3.173000000    -0.243000000     3.980000000
C    -2.095000000     0.599000000     4.260000000
C    -0.923000000    -0.025000000     4.600000000
H    -0.823000000    -1.094000000     4.770000000
C     0.224000000     0.724000000     4.535000000
O     1.402000000     0.017000000     4.718000000
C     0.182000000     2.120000000     4.334000000
C     1.441000000     2.985000000     4.482000000
H     1.310000000     3.962000000     4.951000000
C     2.227000000     2.987000000     3.152000000
C     2.111000000     3.975000000     2.221000000
H     1.447000000     4.799000000     2.468000000
H     2.085000000     2.510000000     5.226000000
C    -1.061000000     2.708000000     4.071000000
H    -1.020000000     3.754000000     3.774000000
C    -2.218000000     1.948000000     4.037000000
C    -3.466000000     2.551000000     3.541000000
H    -3.465000000     3.573000000     3.927000000
H    -4.318000000     2.066000000     4.024000000
C    -3.558000000     2.599000000     2.048000000
C    -3.159000000     3.739000000     1.322000000
H    -2.729000000     4.564000000     1.885000000
C    -4.053000000     1.514000000     1.353000000
C    -4.313000000     1.623000000    -0.017000000
H    -4.798000000     0.811000000    -0.554000000
C    -3.826000000     2.712000000    -0.773000000
O    -3.863000000     2.617000000    -2.141000000
C    -2.670000000     2.154000000    -2.796000000
C    -3.106000000     1.168000000    -3.947000000
C    -2.298000000     1.043000000    -5.059000000
H    -1.535000000     1.802000000    -5.207000000
C    -4.183000000     0.370000000    -3.836000000
H    -4.868000000     0.482000000    -2.999000000
O    -1.934000000     3.303000000    -3.373000000
H    -2.048000000     1.568000000    -2.103000000
C    -3.241000000     3.788000000    -0.085000000
C    -2.560000000     4.865000000    -0.958000000
H    -2.500000000     5.855000000    -0.500000000
H    -3.105000000     5.045000000    -1.887000000
C    -1.115000000     4.403000000    -1.342000000
C     0.008000000     4.859000000    -0.610000000
H    -0.202000000     5.286000000     0.367000000
C    -0.938000000     3.765000000    -2.606000000
C     0.372000000     3.421000000    -2.968000000
H     0.470000000     2.886000000    -3.909000000
C     1.459000000     3.839000000    -2.137000000
O     2.654000000     3.278000000    -2.489000000
C     3.121000000     2.195000000    -1.657000000
C     3.553000000     1.007000000    -2.505000000
C     2.986000000     0.663000000    -3.726000000
H     2.182000000     1.227000000    -4.191000000
C     4.689000000     0.245000000    -2.069000000
H     5.272000000     0.517000000    -1.193000000
O     4.060000000     2.613000000    -0.663000000
H     2.241000000     1.917000000    -1.059000000
C     1.317000000     4.623000000    -1.029000000
C     2.487000000     4.975000000    -0.131000000
H     2.295000000     5.963000000     0.294000000
H     3.438000000     5.092000000    -0.655000000
C     2.701000000     3.919000000     0.938000000
C     3.533000000     2.846000000     0.593000000
C     3.681000000     1.873000000     1.582000000
H     4.294000000     0.992000000     1.407000000
C     3.063000000     1.927000000     2.792000000
O     3.267000000     0.836000000     3.614000000
C     2.327000000    -0.176000000     3.524000000
H     1.801000000    -0.014000000     2.572000000
C     2.964000000    -1.563000000     3.603000000
C     2.326000000    -2.619000000     4.223000000
H     1.416000000    -2.449000000     4.792000000
C     4.148000000    -1.836000000     2.890000000
H     4.790000000    -1.089000000     2.430000000
C     4.715000000    -3.118000000     2.893000000
O     5.954000000    -3.371000000     2.316000000
C     4.033000000    -4.189000000     3.485000000
H     4.590000000    -5.108000000     3.651000000
C     2.867000000    -3.902000000     4.244000000
O     2.222000000    -4.972000000     4.882000000
C     0.922000000    -5.051000000     5.017000000
C    -0.032000000    -5.047000000     4.022000000
H     0.288000000    -5.083000000     2.984000000
C     0.404000000    -5.114000000     6.281000000
H     1.079000000    -4.921000000     7.111000000
C    -0.927000000    -4.955000000     6.564000000
H    -1.308000000    -4.923000000     7.581000000
C    -1.889000000    -4.918000000     5.570000000
H    -2.933000000    -4.858000000     5.866000000
C    -1.393000000    -5.083000000     4.262000000
O    -2.259000000    -5.265000000     3.185000000
C    -2.923000000    -4.253000000     2.461000000
C    -3.376000000    -4.553000000     1.158000000
H    -3.216000000    -5.563000000     0.788000000
C    -3.891000000    -3.542000000     0.409000000
O    -4.147000000    -3.826000000    -0.938000000
C    -5.246000000    -3.187000000    -1.603000000
C    -4.932000000    -2.701000000    -2.888000000
H    -3.918000000    -2.740000000    -3.276000000
C    -6.456000000    -2.883000000    -1.022000000
H    -6.556000000    -3.178000000     0.019000000
C    -7.419000000    -2.200000000    -1.763000000
H    -8.306000000    -1.856000000    -1.237000000
C    -7.163000000    -1.683000000    -3.001000000
H    -7.869000000    -1.013000000    -3.484000000
C    -5.900000000    -1.949000000    -3.560000000
O    -5.576000000    -1.360000000    -4.771000000
C    -4.511000000    -0.538000000    -4.884000000
C    -3.683000000    -0.597000000    -6.009000000
H    -3.828000000    -1.346000000    -6.783000000
C    -2.530000000     0.129000000    -6.041000000
O    -1.745000000     0.084000000    -7.150000000
C    -0.379000000     0.340000000    -7.071000000
C     0.533000000    -0.463000000    -6.378000000
H     0.223000000    -1.355000000    -5.839000000
C     0.078000000     1.443000000    -7.750000000
H    -0.607000000     2.002000000    -8.382000000
C     1.446000000     1.820000000    -7.712000000
H     1.763000000     2.735000000    -8.206000000
C     2.357000000     1.058000000    -6.946000000
H     3.404000000     1.347000000    -6.896000000
C     1.850000000    -0.099000000    -6.277000000
O     2.739000000    -0.964000000    -5.587000000
C     3.358000000    -0.508000000    -4.416000000
C     4.407000000    -1.272000000    -3.911000000
H     4.579000000    -2.280000000    -4.279000000
C     5.019000000    -0.906000000    -2.773000000
O     5.863000000    -1.846000000    -2.227000000
C     6.453000000    -1.901000000    -1.006000000
C     7.475000000    -0.999000000    -0.669000000
H     7.929000000    -0.362000000    -1.424000000
C     8.066000000    -1.096000000     0.567000000
H     8.852000000    -0.379000000     0.788000000
C     7.614000000    -1.987000000     1.468000000
H     8.094000000    -2.085000000     2.438000000
C     6.493000000    -2.730000000     1.248000000
C     5.899000000    -2.777000000    -0.004000000
H     5.059000000    -3.450000000    -0.154000000
C    -0.421000000    -2.032000000    -2.315000000
H    -0.803000000    -1.903000000    -3.324000000
C     0.345000000    -0.954000000    -1.883000000
H     0.580000000    -0.106000000    -2.521000000
C     0.942000000    -1.008000000    -0.588000000
H     1.631000000    -0.297000000    -0.166000000
C     0.693000000    -2.083000000     0.200000000
H     1.090000000    -2.012000000     1.210000000
C    -0.153000000    -3.152000000    -0.232000000
H    -0.439000000    -3.959000000     0.437000000
C    -0.625000000    -3.234000000    -1.580000000
C    -1.348000000    -4.439000000    -2.033000000
O    -1.263000000    -5.452000000    -1.416000000
O    -1.963000000    -4.440000000    -3.106000000
O    -0.375000000    -6.469000000     0.624000000
H     0.191000000    -7.202000000     0.381000000
H    -0.785000000    -6.200000000    -0.198000000
O     2.440000000    -3.504000000    -2.581000000
H     1.969000000    -2.676000000    -2.488000000
H     2.425000000    -3.888000000    -1.705000000
O    -2.565000000    -8.916000000    -4.008000000
H    -1.919000000    -9.197000000    -4.656000000
H    -2.388000000    -7.983000000    -3.882000000
O    -6.494000000    -6.094000000    -2.227000000
H    -5.710000000    -6.280000000    -2.743000000
H    -7.203000000    -6.068000000    -2.869000000
O    -5.529000000    -7.268000000     0.421000000
H    -5.376000000    -6.989000000    -0.481000000
H    -5.757000000    -6.463000000     0.886000000
O    -3.230000000   -10.001000000    -1.162000000
H    -3.296000000    -9.121000000    -1.534000000
H    -2.967000000   -10.553000000    -1.899000000
O     1.173000000    -3.985000000    -5.434000000
H     0.237000000    -3.788000000    -5.443000000
H     1.274000000    -4.639000000    -4.743000000
O    -0.052000000    -8.173000000    -1.720000000
H    -0.928000000    -7.853000000    -1.936000000
H     0.473000000    -7.976000000    -2.496000000
O     1.710000000    -6.165000000    -3.764000000
H     1.977000000    -5.674000000    -2.987000000
H     2.447000000    -6.749000000    -3.943000000
O    -3.567000000    -4.698000000    -6.783000000
H    -3.410000000    -5.248000000    -7.551000000
H    -4.487000000    -4.445000000    -6.853000000
O    -0.526000000    -7.298000000    -7.138000000
H    -0.074000000    -8.130000000    -6.996000000
H    -0.839000000    -7.045000000    -6.270000000
O     4.676000000    -4.893000000    -3.569000000
H     4.258000000    -5.274000000    -4.342000000
H     4.026000000    -4.281000000    -3.223000000
O    -1.635000000    -3.211000000    -5.623000000
H    -2.431000000    -3.643000000    -5.933000000
H    -1.527000000    -3.524000000    -4.725000000
O    -0.941000000    -8.006000000     3.133000000
H    -1.884000000    -8.164000000     3.157000000
H    -0.828000000    -7.327000000     2.468000000
O     2.771000000    -5.230000000    -0.475000000
H     3.375000000    -5.889000000    -0.817000000
H     2.396000000    -5.632000000     0.308000000
O    -1.112000000    -6.681000000    -4.612000000
H    -0.211000000    -6.847000000    -4.335000000
H    -1.363000000    -5.884000000    -4.146000000
O    -4.027000000    -5.861000000    -3.685000000
H    -3.326000000    -5.303000000    -3.348000000
H    -4.066000000    -5.658000000    -4.619000000
O    -0.887000000    -9.848000000     0.268000000
H    -1.796000000    -9.600000000     0.097000000
H    -0.425000000    -9.642000000    -0.545000000
O    -3.027000000    -7.341000000    -1.750000000
H    -2.387000000    -6.672000000    -1.507000000
H    -3.625000000    -6.894000000    -2.349000000
