215
-1459.02761
C    -4.291000000    -2.374000000     1.453000000
H    -5.005000000    -1.686000000     1.007000000
C    -3.373000000    -1.999000000     2.458000000
C    -2.462000000    -2.954000000     2.975000000
H    -1.651000000    -2.629000000     3.621000000
C    -3.062000000    -0.531000000     2.730000000
O    -4.184000000     0.383000000     2.500000000
H    -2.175000000    -0.219000000     2.158000000
O    -2.696000000    -0.359000000     4.106000000
C    -1.621000000     0.506000000     4.338000000
C    -0.399000000    -0.104000000     4.582000000
H    -0.375000000    -1.181000000     4.730000000
C     0.769000000     0.596000000     4.741000000
O     1.963000000    -0.028000000     4.858000000
C     0.763000000     1.971000000     4.633000000
C     2.021000000     2.773000000     4.512000000
H     1.845000000     3.799000000     4.843000000
C     2.524000000     2.760000000     3.098000000
C     2.305000000     3.786000000     2.194000000
H     1.732000000     4.614000000     2.604000000
H     2.799000000     2.326000000     5.135000000
C    -0.429000000     2.628000000     4.371000000
H    -0.321000000     3.682000000     4.130000000
C    -1.629000000     1.901000000     4.226000000
C    -2.956000000     2.606000000     3.891000000
H    -2.938000000     3.667000000     4.149000000
H    -3.794000000     2.115000000     4.389000000
C    -3.216000000     2.597000000     2.437000000
C    -2.801000000     3.715000000     1.639000000
H    -2.275000000     4.508000000     2.165000000
C    -3.822000000     1.502000000     1.803000000
C    -4.080000000     1.642000000     0.397000000
H    -4.735000000     0.876000000    -0.010000000
C    -3.503000000     2.621000000    -0.431000000
O    -3.727000000     2.565000000    -1.770000000
C    -2.602000000     2.344000000    -2.676000000
C    -3.007000000     1.381000000    -3.748000000
C    -2.356000000     1.466000000    -4.974000000
H    -1.526000000     2.148000000    -5.142000000
C    -3.834000000     0.312000000    -3.493000000
H    -4.341000000     0.233000000    -2.535000000
O    -2.060000000     3.660000000    -3.153000000
H    -1.858000000     1.862000000    -2.026000000
C    -2.909000000     3.728000000     0.222000000
C    -2.482000000     4.958000000    -0.525000000
H    -2.358000000     5.785000000     0.177000000
H    -3.238000000     5.366000000    -1.200000000
C    -1.145000000     4.796000000    -1.230000000
C     0.048000000     5.085000000    -0.573000000
H     0.052000000     5.611000000     0.379000000
C    -0.982000000     4.146000000    -2.487000000
C     0.200000000     3.736000000    -3.032000000
H     0.292000000     3.322000000    -4.033000000
C     1.406000000     3.985000000    -2.247000000
O     2.643000000     3.423000000    -2.602000000
C     2.970000000     2.217000000    -1.846000000
C     3.223000000     0.944000000    -2.715000000
C     2.744000000     0.942000000    -4.006000000
H     2.270000000     1.838000000    -4.399000000
C     3.921000000    -0.199000000    -2.221000000
H     4.249000000    -0.163000000    -1.186000000
O     3.933000000     2.422000000    -0.791000000
H     1.990000000     1.981000000    -1.406000000
C     1.274000000     4.611000000    -1.001000000
C     2.481000000     4.857000000    -0.161000000
H     2.410000000     5.755000000     0.457000000
H     3.401000000     5.006000000    -0.731000000
C     2.801000000     3.801000000     0.856000000
C     3.514000000     2.648000000     0.486000000
C     3.751000000     1.623000000     1.355000000
H     4.294000000     0.800000000     0.898000000
C     3.333000000     1.694000000     2.637000000
O     3.591000000     0.562000000     3.283000000
C     2.595000000    -0.360000000     3.621000000
H     1.829000000    -0.285000000     2.835000000
C     3.235000000    -1.771000000     3.680000000
C     2.563000000    -2.760000000     4.383000000
H     1.788000000    -2.542000000     5.113000000
C     4.202000000    -2.145000000     2.735000000
H     4.641000000    -1.396000000     2.081000000
C     4.636000000    -3.426000000     2.604000000
O     5.528000000    -3.798000000     1.664000000
C     4.028000000    -4.449000000     3.416000000
H     4.357000000    -5.469000000     3.238000000
C     2.952000000    -4.105000000     4.281000000
O     2.395000000    -4.990000000     5.151000000
C     1.044000000    -5.041000000     5.342000000
C     0.183000000    -5.285000000     4.213000000
H     0.575000000    -5.535000000     3.231000000
C     0.482000000    -4.720000000     6.583000000
H     1.069000000    -4.614000000     7.491000000
C    -0.906000000    -4.610000000     6.664000000
H    -1.341000000    -4.356000000     7.627000000
C    -1.753000000    -4.760000000     5.518000000
H    -2.829000000    -4.608000000     5.545000000
C    -1.168000000    -5.201000000     4.295000000
O    -1.842000000    -5.237000000     3.131000000
C    -2.679000000    -4.245000000     2.627000000
C    -3.561000000    -4.635000000     1.593000000
H    -3.603000000    -5.666000000     1.250000000
C    -4.294000000    -3.704000000     0.912000000
O    -5.135000000    -4.119000000    -0.074000000
C    -5.732000000    -3.242000000    -0.988000000
C    -4.965000000    -2.784000000    -2.054000000
H    -3.924000000    -2.986000000    -2.292000000
C    -7.049000000    -2.823000000    -0.858000000
H    -7.674000000    -3.280000000    -0.095000000
C    -7.673000000    -1.984000000    -1.857000000
H    -8.741000000    -1.797000000    -1.790000000
C    -6.888000000    -1.521000000    -2.914000000
H    -7.257000000    -0.984000000    -3.784000000
C    -5.630000000    -2.032000000    -3.040000000
O    -5.006000000    -1.730000000    -4.245000000
C    -4.145000000    -0.623000000    -4.458000000
C    -3.582000000    -0.520000000    -5.744000000
H    -3.740000000    -1.259000000    -6.525000000
C    -2.615000000     0.469000000    -5.932000000
O    -2.040000000     0.555000000    -7.231000000
C    -0.696000000     0.809000000    -7.475000000
C     0.220000000     0.192000000    -6.651000000
H    -0.179000000    -0.552000000    -5.966000000
C    -0.291000000     1.935000000    -8.172000000
H    -0.982000000     2.516000000    -8.778000000
C     1.063000000     2.299000000    -8.160000000
H     1.366000000     3.172000000    -8.733000000
C     1.988000000     1.586000000    -7.495000000
H     3.020000000     1.921000000    -7.431000000
C     1.592000000     0.550000000    -6.736000000
O     2.553000000    -0.221000000    -6.171000000
C     2.946000000    -0.191000000    -4.820000000
C     3.609000000    -1.270000000    -4.330000000
H     3.682000000    -2.111000000    -5.015000000
C     4.202000000    -1.294000000    -3.068000000
O     5.081000000    -2.313000000    -2.747000000
C     5.810000000    -2.289000000    -1.607000000
C     7.018000000    -1.538000000    -1.520000000
H     7.351000000    -0.969000000    -2.384000000
C     7.692000000    -1.555000000    -0.329000000
H     8.628000000    -1.014000000    -0.219000000
C     7.206000000    -2.312000000     0.702000000
H     7.709000000    -2.159000000     1.653000000
C     6.016000000    -3.045000000     0.602000000
C     5.333000000    -3.034000000    -0.597000000
H     4.391000000    -3.561000000    -0.726000000
C    -0.877000000    -1.879000000    -1.283000000
H    -1.049000000    -1.652000000    -2.332000000
C    -0.595000000    -0.677000000    -0.641000000
H    -0.619000000     0.329000000    -1.054000000
C    -0.084000000    -0.726000000     0.630000000
H     0.327000000     0.232000000     1.034000000
C    -0.032000000    -1.911000000     1.333000000
H     0.349000000    -1.951000000     2.350000000
C    -0.399000000    -3.126000000     0.696000000
H    -0.345000000    -4.085000000     1.206000000
C    -0.826000000    -3.140000000    -0.644000000
C    -1.352000000    -4.368000000    -1.286000000
O    -1.476000000    -5.432000000    -0.641000000
O    -1.817000000    -4.324000000    -2.389000000
O     0.246000000    -7.012000000     0.854000000
H     1.101000000    -6.611000000     0.698000000
H    -0.385000000    -6.336000000     0.607000000
O     2.330000000    -3.917000000    -2.416000000
H     1.615000000    -3.324000000    -2.187000000
H     2.453000000    -4.456000000    -1.634000000
O    -2.681000000    -6.595000000    -6.059000000
H    -2.432000000    -7.280000000    -6.680000000
H    -2.046000000    -6.677000000    -5.347000000
O    -6.199000000    -6.711000000    -2.528000000
H    -5.554000000    -6.221000000    -3.038000000
H    -6.061000000    -7.624000000    -2.780000000
O    -6.109000000    -6.991000000     0.140000000
H    -5.885000000    -6.073000000     0.296000000
H    -6.271000000    -7.041000000    -0.802000000
O    -3.616000000   -10.722000000    -1.046000000
H    -3.534000000    -9.827000000    -1.375000000
H    -2.845000000   -11.174000000    -1.389000000
O    -0.872000000    -9.393000000    -3.464000000
H    -0.574000000    -8.487000000    -3.543000000
H    -1.447000000    -9.523000000    -4.218000000
O     3.848000000    -8.065000000    -2.303000000
H     2.940000000    -8.253000000    -2.539000000
H     4.281000000    -8.919000000    -2.319000000
O     2.067000000    -4.886000000    -4.924000000
H     2.274000000    -4.557000000    -4.049000000
H     2.541000000    -4.302000000    -5.517000000
O    -3.292000000    -4.046000000    -6.610000000
H    -3.098000000    -4.951000000    -6.365000000
H    -4.248000000    -3.994000000    -6.594000000
O     0.329000000    -4.954000000    -6.776000000
H    -0.332000000    -4.492000000    -6.261000000
H     1.119000000    -4.921000000    -6.236000000
O     1.596000000    -9.692000000     1.036000000
H     0.946000000    -9.480000000     0.365000000
H     1.516000000    -8.986000000     1.678000000
O    -1.150000000    -3.486000000    -4.857000000
H    -1.893000000    -3.601000000    -5.450000000
H    -1.418000000    -3.927000000    -4.050000000
O    -0.473000000    -8.308000000     2.978000000
H    -1.419000000    -8.275000000     3.120000000
H    -0.342000000    -7.875000000     2.135000000
O     3.028000000    -5.588000000     0.156000000
H     3.921000000    -5.652000000     0.494000000
H     2.877000000    -6.425000000    -0.283000000
O    -0.480000000    -6.661000000    -4.063000000
H     0.158000000    -5.972000000    -4.245000000
H    -1.067000000    -6.278000000    -3.411000000
O    -4.091000000    -5.459000000    -3.438000000
H    -3.320000000    -5.061000000    -3.035000000
H    -4.078000000    -5.145000000    -4.342000000
O    -0.724000000    -9.781000000    -0.782000000
H    -1.357000000    -9.139000000    -0.461000000
H    -0.750000000    -9.687000000    -1.734000000
O    -3.133000000    -7.414000000    -1.129000000
H    -2.550000000    -6.709000000    -0.848000000
H    -3.997000000    -7.006000000    -1.176000000
