215
-1428.83325
C    -4.616000000    -1.966000000     1.621000000
H    -5.072000000    -1.044000000     1.272000000
C    -3.543000000    -1.874000000     2.600000000
C    -2.905000000    -3.070000000     3.047000000
H    -2.039000000    -3.075000000     3.704000000
C    -2.979000000    -0.536000000     3.005000000
O    -4.042000000     0.459000000     2.773000000
H    -2.145000000    -0.308000000     2.326000000
O    -2.473000000    -0.608000000     4.349000000
C    -1.260000000     0.022000000     4.561000000
C    -0.123000000    -0.740000000     4.579000000
H    -0.272000000    -1.813000000     4.486000000
C     1.100000000    -0.102000000     4.420000000
O     2.178000000    -0.860000000     4.188000000
C     1.221000000     1.347000000     4.517000000
C     2.594000000     2.092000000     4.390000000
H     2.526000000     3.064000000     4.883000000
C     3.031000000     2.227000000     2.942000000
C     2.700000000     3.409000000     2.282000000
H     2.246000000     4.219000000     2.846000000
H     3.271000000     1.488000000     4.998000000
C     0.062000000     2.084000000     4.554000000
H    -0.012000000     3.158000000     4.407000000
C    -1.180000000     1.406000000     4.553000000
C    -2.412000000     2.339000000     4.373000000
H    -1.958000000     3.230000000     4.812000000
H    -3.153000000     2.061000000     5.125000000
C    -2.882000000     2.517000000     2.929000000
C    -2.405000000     3.618000000     2.209000000
H    -1.841000000     4.404000000     2.703000000
C    -3.734000000     1.654000000     2.219000000
C    -4.198000000     1.981000000     0.950000000
H    -4.711000000     1.236000000     0.348000000
C    -3.643000000     3.060000000     0.277000000
O    -3.743000000     3.062000000    -1.050000000
C    -2.550000000     2.607000000    -1.763000000
C    -2.952000000     1.488000000    -2.702000000
C    -2.078000000     0.946000000    -3.679000000
H    -1.121000000     1.416000000    -3.892000000
C    -4.236000000     0.956000000    -2.665000000
H    -4.944000000     1.386000000    -1.961000000
O    -1.931000000     3.771000000    -2.408000000
H    -1.823000000     2.186000000    -1.053000000
C    -2.804000000     3.951000000     0.901000000
C    -2.180000000     5.175000000     0.216000000
H    -2.028000000     5.986000000     0.931000000
H    -2.876000000     5.677000000    -0.459000000
C    -0.871000000     4.941000000    -0.580000000
C     0.342000000     5.156000000     0.063000000
H     0.314000000     5.563000000     1.070000000
C    -0.856000000     4.355000000    -1.866000000
C     0.339000000     4.069000000    -2.495000000
H     0.450000000     3.550000000    -3.443000000
C     1.535000000     4.301000000    -1.825000000
O     2.669000000     3.826000000    -2.410000000
C     3.245000000     2.550000000    -1.955000000
C     3.808000000     1.719000000    -3.083000000
C     3.162000000     1.583000000    -4.267000000
H     2.308000000     2.237000000    -4.425000000
C     4.917000000     0.899000000    -2.906000000
H     5.414000000     0.866000000    -1.940000000
O     4.258000000     2.786000000    -0.908000000
H     2.521000000     1.856000000    -1.502000000
C     1.557000000     4.813000000    -0.555000000
C     2.804000000     4.909000000     0.311000000
H     2.669000000     5.674000000     1.078000000
H     3.616000000     5.042000000    -0.407000000
C     3.100000000     3.590000000     1.001000000
C     3.801000000     2.613000000     0.345000000
C     4.085000000     1.401000000     0.986000000
H     4.516000000     0.511000000     0.533000000
C     3.687000000     1.205000000     2.285000000
O     3.794000000    -0.064000000     2.781000000
C     2.702000000    -0.937000000     2.903000000
H     1.885000000    -0.707000000     2.203000000
C     3.148000000    -2.383000000     2.511000000
C     2.369000000    -3.499000000     2.897000000
H     1.426000000    -3.436000000     3.435000000
C     4.192000000    -2.486000000     1.624000000
H     4.683000000    -1.609000000     1.208000000
C     4.517000000    -3.757000000     1.076000000
O     5.499000000    -3.823000000     0.119000000
C     3.739000000    -4.853000000     1.463000000
H     3.928000000    -5.829000000     1.024000000
C     2.662000000    -4.736000000     2.292000000
O     1.899000000    -5.830000000     2.604000000
C     0.741000000    -5.802000000     3.403000000
C    -0.530000000    -5.517000000     2.861000000
H    -0.615000000    -5.304000000     1.799000000
C     0.796000000    -6.352000000     4.726000000
H     1.737000000    -6.647000000     5.184000000
C    -0.399000000    -6.556000000     5.499000000
H    -0.195000000    -7.087000000     6.425000000
C    -1.664000000    -6.188000000     4.972000000
H    -2.586000000    -6.291000000     5.538000000
C    -1.676000000    -5.634000000     3.630000000
O    -2.891000000    -5.555000000     2.980000000
C    -3.435000000    -4.294000000     2.628000000
C    -4.488000000    -4.320000000     1.747000000
H    -4.839000000    -5.295000000     1.417000000
C    -5.124000000    -3.200000000     1.262000000
O    -6.183000000    -3.349000000     0.352000000
C    -6.701000000    -2.352000000    -0.343000000
C    -6.097000000    -2.008000000    -1.591000000
H    -5.165000000    -2.478000000    -1.895000000
C    -7.770000000    -1.567000000     0.107000000
H    -8.210000000    -1.698000000     1.092000000
C    -8.294000000    -0.587000000    -0.656000000
H    -9.232000000    -0.192000000    -0.276000000
C    -7.751000000    -0.274000000    -1.862000000
H    -8.186000000     0.480000000    -2.514000000
C    -6.597000000    -0.927000000    -2.274000000
O    -6.017000000    -0.602000000    -3.438000000
C    -4.731000000    -0.022000000    -3.555000000
C    -3.857000000    -0.566000000    -4.475000000
H    -4.158000000    -1.403000000    -5.098000000
C    -2.573000000    -0.036000000    -4.574000000
O    -1.847000000    -0.540000000    -5.557000000
C    -0.926000000     0.222000000    -6.156000000
C     0.426000000     0.128000000    -5.894000000
H     0.837000000    -0.434000000    -5.059000000
C    -1.380000000     1.006000000    -7.272000000
H    -2.439000000     0.897000000    -7.494000000
C    -0.445000000     1.599000000    -8.099000000
H    -0.812000000     2.093000000    -8.995000000
C     0.960000000     1.471000000    -7.865000000
H     1.625000000     2.064000000    -8.488000000
C     1.353000000     0.777000000    -6.670000000
O     2.720000000     0.689000000    -6.425000000
C     3.454000000     0.672000000    -5.254000000
C     4.491000000    -0.205000000    -5.089000000
H     4.643000000    -0.893000000    -5.917000000
C     5.218000000    -0.134000000    -3.885000000
O     6.139000000    -1.144000000    -3.681000000
C     6.543000000    -1.435000000    -2.396000000
C     7.600000000    -0.760000000    -1.794000000
H     8.139000000     0.059000000    -2.263000000
C     7.877000000    -1.051000000    -0.467000000
H     8.699000000    -0.528000000     0.015000000
C     7.173000000    -2.022000000     0.176000000
H     7.403000000    -2.244000000     1.215000000
C     6.208000000    -2.825000000    -0.480000000
C     5.968000000    -2.549000000    -1.798000000
H     5.190000000    -3.083000000    -2.336000000
C     0.448000000    -1.347000000    -1.894000000
H     0.422000000    -1.483000000    -2.972000000
C     0.556000000    -0.018000000    -1.398000000
H     0.722000000     0.765000000    -2.133000000
C     0.383000000     0.196000000    -0.072000000
H     0.533000000     1.156000000     0.379000000
C     0.033000000    -0.843000000     0.731000000
H    -0.218000000    -0.599000000     1.760000000
C    -0.029000000    -2.193000000     0.282000000
H    -0.201000000    -2.985000000     1.006000000
C     0.228000000    -2.437000000    -1.060000000
C     0.124000000    -3.846000000    -1.525000000
O     0.009000000    -4.796000000    -0.761000000
O     0.158000000    -4.033000000    -2.740000000
O    -1.588000000    -6.734000000    -0.904000000
H    -1.114000000    -7.481000000    -1.271000000
H    -0.915000000    -6.068000000    -0.766000000
O     2.427000000    -5.779000000    -2.829000000
H     1.941000000    -6.391000000    -3.382000000
H     1.761000000    -5.183000000    -2.488000000
O    -1.599000000    -5.993000000    -7.338000000
H    -1.272000000    -6.881000000    -7.190000000
H    -1.107000000    -5.451000000    -6.721000000
O    -4.250000000    -7.547000000     0.141000000
H    -4.149000000    -8.229000000     0.805000000
H    -3.378000000    -7.161000000     0.058000000
O    -5.427000000    -7.433000000    -2.426000000
H    -4.732000000    -7.394000000    -3.084000000
H    -4.967000000    -7.388000000    -1.588000000
O     2.995000000    -3.092000000    -4.147000000
H     2.934000000    -2.988000000    -3.198000000
H     2.457000000    -3.861000000    -4.339000000
O     4.024000000    -8.512000000     1.986000000
H     3.398000000    -7.857000000     2.296000000
H     4.047000000    -8.392000000     1.037000000
O     4.669000000    -8.994000000    -1.633000000
H     4.266000000    -8.337000000    -2.200000000
H     4.004000000    -9.677000000    -1.547000000
O     1.988000000    -3.629000000    -7.201000000
H     1.359000000    -3.477000000    -6.496000000
H     1.638000000    -3.140000000    -7.945000000
O     5.161000000    -5.619000000    -3.356000000
H     4.263000000    -5.691000000    -3.032000000
H     5.180000000    -6.177000000    -4.134000000
O    -0.866000000    -9.051000000    -2.038000000
H    -0.462000000    -9.424000000    -2.821000000
H    -1.692000000    -9.526000000    -1.945000000
O     0.003000000    -5.058000000    -5.209000000
H     0.448000000    -5.899000000    -5.105000000
H    -0.017000000    -4.687000000    -4.327000000
O     0.389000000    -8.076000000     1.074000000
H     0.126000000    -7.190000000     1.323000000
H    -0.346000000    -8.408000000     0.559000000
O     3.205000000    -6.252000000    -6.569000000
H     2.726000000    -5.466000000    -6.829000000
H     3.207000000    -6.801000000    -7.353000000
O    -3.430000000    -7.643000000    -4.216000000
H    -2.601000000    -7.726000000    -3.746000000
H    -3.292000000    -6.912000000    -4.818000000
O     4.648000000    -3.334000000    -6.315000000
H     3.898000000    -3.477000000    -6.893000000
H     4.267000000    -2.982000000    -5.511000000
O    -3.440000000    -5.130000000    -5.425000000
H    -2.892000000    -4.463000000    -5.838000000
H    -3.339000000    -4.975000000    -4.486000000
O    -2.443000000    -4.626000000    -2.963000000
H    -1.584000000    -4.211000000    -2.884000000
H    -2.373000000    -5.423000000    -2.437000000
O     1.445000000    -7.463000000    -4.688000000
H     2.107000000    -7.210000000    -5.331000000
H     1.331000000    -8.404000000    -4.818000000
