215
-1446.18935
C    -4.132000000    -1.806000000     1.452000000
H    -4.255000000    -0.996000000     0.738000000
C    -3.675000000    -1.389000000     2.712000000
C    -3.398000000    -2.300000000     3.749000000
H    -2.797000000    -1.984000000     4.598000000
C    -3.275000000     0.063000000     2.800000000
O    -4.141000000     1.045000000     2.136000000
H    -2.249000000     0.075000000     2.402000000
O    -2.927000000     0.506000000     4.164000000
C    -1.700000000     1.127000000     4.345000000
C    -0.539000000     0.337000000     4.540000000
H    -0.684000000    -0.717000000     4.761000000
C     0.711000000     0.931000000     4.532000000
O     1.788000000     0.136000000     4.750000000
C     0.801000000     2.323000000     4.267000000
C     2.147000000     2.996000000     4.135000000
H     2.047000000     4.083000000     4.143000000
C     2.737000000     2.789000000     2.731000000
C     2.493000000     3.801000000     1.769000000
H     1.938000000     4.715000000     1.960000000
H     2.825000000     2.663000000     4.923000000
C    -0.335000000     3.009000000     3.916000000
H    -0.279000000     4.016000000     3.510000000
C    -1.602000000     2.433000000     3.988000000
C    -2.801000000     3.246000000     3.520000000
H    -2.515000000     4.274000000     3.753000000
H    -3.726000000     2.832000000     3.926000000
C    -2.892000000     3.131000000     1.966000000
C    -2.269000000     4.032000000     1.121000000
H    -1.714000000     4.871000000     1.533000000
C    -3.629000000     2.074000000     1.405000000
C    -3.708000000     1.964000000     0.036000000
H    -4.314000000     1.194000000    -0.436000000
C    -3.235000000     2.930000000    -0.792000000
O    -3.571000000     2.803000000    -2.146000000
C    -2.483000000     2.398000000    -3.007000000
C    -3.048000000     1.456000000    -4.019000000
C    -2.340000000     1.249000000    -5.172000000
H    -1.475000000     1.872000000    -5.389000000
C    -4.092000000     0.541000000    -3.704000000
H    -4.644000000     0.748000000    -2.790000000
O    -1.737000000     3.498000000    -3.631000000
H    -1.838000000     1.812000000    -2.335000000
C    -2.561000000     4.038000000    -0.258000000
C    -2.038000000     5.155000000    -1.155000000
H    -1.913000000     6.101000000    -0.624000000
H    -2.763000000     5.318000000    -1.956000000
C    -0.769000000     4.767000000    -1.805000000
C     0.398000000     5.102000000    -1.106000000
H     0.464000000     5.746000000    -0.233000000
C    -0.647000000     3.994000000    -2.973000000
C     0.555000000     3.432000000    -3.315000000
H     0.532000000     2.727000000    -4.142000000
C     1.713000000     3.661000000    -2.528000000
O     2.814000000     2.920000000    -2.839000000
C     3.238000000     1.802000000    -2.020000000
C     3.555000000     0.509000000    -2.743000000
C     2.646000000     0.016000000    -3.665000000
H     1.687000000     0.472000000    -3.894000000
C     4.712000000    -0.222000000    -2.391000000
H     5.441000000     0.260000000    -1.745000000
O     4.203000000     2.217000000    -1.067000000
H     2.314000000     1.615000000    -1.453000000
C     1.625000000     4.469000000    -1.396000000
C     2.842000000     4.759000000    -0.494000000
H     2.830000000     5.771000000    -0.084000000
H     3.634000000     4.721000000    -1.245000000
C     3.053000000     3.642000000     0.509000000
C     3.834000000     2.537000000     0.190000000
C     3.968000000     1.528000000     1.075000000
H     4.402000000     0.589000000     0.739000000
C     3.454000000     1.665000000     2.350000000
O     3.603000000     0.564000000     3.200000000
C     2.396000000    -0.254000000     3.517000000
H     1.668000000    -0.220000000     2.694000000
C     2.740000000    -1.710000000     3.547000000
C     1.941000000    -2.668000000     4.119000000
H     1.072000000    -2.315000000     4.669000000
C     3.767000000    -2.139000000     2.716000000
H     4.413000000    -1.420000000     2.220000000
C     4.004000000    -3.519000000     2.431000000
O     5.130000000    -3.979000000     1.757000000
C     3.208000000    -4.477000000     3.069000000
H     3.471000000    -5.490000000     2.775000000
C     2.174000000    -4.048000000     3.893000000
O     1.307000000    -5.057000000     4.267000000
C     0.186000000    -4.887000000     5.003000000
C    -1.034000000    -4.762000000     4.393000000
H    -1.172000000    -4.728000000     3.315000000
C     0.180000000    -4.846000000     6.388000000
H     1.161000000    -4.953000000     6.844000000
C    -0.979000000    -4.582000000     7.150000000
H    -0.845000000    -4.382000000     8.211000000
C    -2.227000000    -4.510000000     6.546000000
H    -3.189000000    -4.363000000     7.032000000
C    -2.198000000    -4.651000000     5.142000000
O    -3.408000000    -4.611000000     4.477000000
C    -3.670000000    -3.657000000     3.519000000
C    -4.225000000    -4.071000000     2.258000000
H    -4.449000000    -5.132000000     2.189000000
C    -4.451000000    -3.138000000     1.219000000
O    -5.070000000    -3.504000000     0.056000000
C    -5.740000000    -2.597000000    -0.735000000
C    -5.284000000    -2.318000000    -2.007000000
H    -4.363000000    -2.835000000    -2.263000000
C    -6.855000000    -1.888000000    -0.167000000
H    -7.142000000    -2.002000000     0.875000000
C    -7.505000000    -0.937000000    -1.032000000
H    -8.283000000    -0.346000000    -0.556000000
C    -7.017000000    -0.757000000    -2.307000000
H    -7.429000000     0.034000000    -2.928000000
C    -5.853000000    -1.437000000    -2.846000000
O    -5.474000000    -1.317000000    -4.159000000
C    -4.493000000    -0.405000000    -4.557000000
C    -3.895000000    -0.569000000    -5.780000000
H    -4.260000000    -1.413000000    -6.360000000
C    -2.792000000     0.261000000    -6.060000000
O    -1.974000000    -0.110000000    -7.134000000
C    -0.614000000    -0.166000000    -7.185000000
C     0.150000000    -0.981000000    -6.289000000
H    -0.260000000    -1.690000000    -5.575000000
C     0.006000000     0.622000000    -8.108000000
H    -0.651000000     1.168000000    -8.780000000
C     1.393000000     0.729000000    -8.040000000
H     1.860000000     1.526000000    -8.614000000
C     2.156000000     0.001000000    -7.137000000
H     3.241000000     0.022000000    -7.089000000
C     1.483000000    -0.871000000    -6.276000000
O     2.212000000    -1.674000000    -5.401000000
C     2.904000000    -1.175000000    -4.306000000
C     4.088000000    -1.842000000    -4.085000000
H     4.312000000    -2.692000000    -4.725000000
C     4.976000000    -1.459000000    -3.037000000
O     6.069000000    -2.241000000    -2.679000000
C     6.394000000    -2.398000000    -1.351000000
C     7.734000000    -2.142000000    -0.962000000
H     8.435000000    -1.793000000    -1.716000000
C     8.206000000    -2.599000000     0.340000000
H     9.277000000    -2.566000000     0.524000000
C     7.273000000    -3.092000000     1.206000000
H     7.452000000    -3.294000000     2.259000000
C     5.943000000    -3.264000000     0.884000000
C     5.536000000    -2.927000000    -0.409000000
H     4.521000000    -3.213000000    -0.671000000
C    -0.547000000    -1.446000000    -1.728000000
H    -0.412000000    -1.268000000    -2.791000000
C    -0.408000000    -0.360000000    -0.805000000
H    -0.262000000     0.696000000    -1.021000000
C    -0.441000000    -0.676000000     0.553000000
H    -0.274000000     0.064000000     1.237000000
C    -0.680000000    -1.988000000     0.964000000
H    -0.700000000    -2.217000000     2.027000000
C    -0.787000000    -3.015000000     0.032000000
H    -1.009000000    -3.997000000     0.442000000
C    -0.801000000    -2.783000000    -1.347000000
C    -1.038000000    -3.870000000    -2.343000000
O    -1.523000000    -4.940000000    -1.966000000
O    -0.886000000    -3.728000000    -3.563000000
O     0.971000000    -6.155000000     0.668000000
H     0.341000000    -6.552000000     0.066000000
H     0.701000000    -6.461000000     1.533000000
O     2.312000000    -5.423000000    -2.759000000
H     2.035000000    -4.645000000    -3.243000000
H     1.989000000    -5.281000000    -1.870000000
O     0.067000000    -9.294000000    -3.420000000
H     0.909000000    -9.546000000    -3.799000000
H     0.040000000    -8.341000000    -3.509000000
O    -1.080000000    -2.953000000    -8.654000000
H    -1.763000000    -3.210000000    -9.274000000
H    -1.513000000    -2.971000000    -7.800000000
O    -6.559000000    -5.021000000    -2.999000000
H    -5.821000000    -5.547000000    -3.308000000
H    -6.419000000    -4.945000000    -2.055000000
O    -4.065000000    -8.324000000    -2.975000000
H    -4.044000000    -9.270000000    -3.120000000
H    -4.283000000    -7.955000000    -3.831000000
O     1.313000000    -4.234000000    -4.946000000
H     1.568000000    -3.328000000    -4.774000000
H     0.356000000    -4.223000000    -4.916000000
O    -1.365000000    -7.038000000    -0.443000000
H    -1.484000000    -6.160000000    -0.804000000
H    -1.293000000    -7.605000000    -1.211000000
O    -3.435000000    -7.913000000     1.221000000
H    -2.957000000    -7.347000000     0.616000000
H    -4.340000000    -7.888000000     0.909000000
O    -2.625000000    -6.566000000    -6.669000000
H    -2.978000000    -7.231000000    -6.078000000
H    -3.276000000    -6.498000000    -7.368000000
O     0.987000000    -6.819000000    -6.199000000
H     1.676000000    -7.393000000    -5.864000000
H     0.292000000    -6.872000000    -5.543000000
O     5.148000000    -4.994000000    -3.200000000
H     5.172000000    -4.077000000    -3.473000000
H     4.246000000    -5.134000000    -2.911000000
O    -1.438000000    -4.304000000    -6.409000000
H    -1.789000000    -5.192000000    -6.475000000
H    -1.615000000    -4.043000000    -5.505000000
O    -0.902000000    -7.359000000     2.353000000
H    -1.542000000    -7.558000000     1.670000000
H    -1.390000000    -7.448000000     3.172000000
O     3.647000000    -5.617000000    -0.449000000
H     3.515000000    -6.356000000    -1.043000000
H     2.809000000    -5.521000000     0.003000000
O     3.578000000    -5.510000000    -5.872000000
H     2.734000000    -5.085000000    -5.721000000
H     3.353000000    -6.378000000    -6.208000000
O    -0.122000000    -6.673000000    -3.783000000
H     0.757000000    -6.296000000    -3.748000000
H    -0.665000000    -6.062000000    -3.286000000
O    -3.610000000    -5.324000000    -4.142000000
H    -3.055000000    -4.714000000    -3.655000000
H    -3.211000000    -5.370000000    -5.010000000
O    -3.915000000    -6.092000000    -1.363000000
H    -3.268000000    -5.448000000    -1.652000000
H    -3.771000000    -6.848000000    -1.932000000
