215
-1437.38124
C    -4.705000000    -0.894000000     1.430000000
H    -4.988000000    -0.236000000     0.613000000
C    -3.823000000    -0.492000000     2.440000000
C    -3.467000000    -1.359000000     3.481000000
H    -2.943000000    -0.967000000     4.349000000
C    -3.206000000     0.846000000     2.350000000
O    -4.097000000     1.873000000     1.839000000
H    -2.300000000     0.760000000     1.732000000
O    -2.809000000     1.436000000     3.586000000
C    -1.582000000     1.893000000     3.671000000
C    -0.559000000     1.102000000     4.166000000
H    -0.723000000     0.111000000     4.580000000
C     0.742000000     1.611000000     4.122000000
O     1.705000000     0.683000000     4.530000000
C     1.050000000     2.907000000     3.662000000
C     2.488000000     3.427000000     3.643000000
H     2.519000000     4.514000000     3.744000000
C     3.237000000     3.002000000     2.309000000
C     3.133000000     3.823000000     1.271000000
H     2.570000000     4.753000000     1.296000000
H     2.987000000     3.063000000     4.543000000
C     0.028000000     3.720000000     3.188000000
H     0.200000000     4.774000000     2.985000000
C    -1.316000000     3.206000000     3.252000000
C    -2.492000000     4.091000000     2.890000000
H    -2.216000000     5.145000000     2.967000000
H    -3.389000000     3.943000000     3.495000000
C    -2.792000000     3.837000000     1.423000000
C    -2.084000000     4.538000000     0.430000000
H    -1.259000000     5.167000000     0.756000000
C    -3.509000000     2.707000000     1.024000000
C    -3.785000000     2.482000000    -0.331000000
H    -4.400000000     1.619000000    -0.570000000
C    -3.152000000     3.268000000    -1.297000000
O    -3.371000000     2.826000000    -2.569000000
C    -2.296000000     2.039000000    -3.186000000
C    -2.882000000     1.009000000    -4.121000000
C    -2.124000000     0.419000000    -5.175000000
H    -1.178000000     0.926000000    -5.347000000
C    -4.145000000     0.368000000    -3.809000000
H    -4.669000000     0.674000000    -2.907000000
O    -1.346000000     2.857000000    -3.901000000
H    -1.811000000     1.449000000    -2.394000000
C    -2.269000000     4.277000000    -0.946000000
C    -1.490000000     4.928000000    -1.997000000
H    -1.119000000     5.898000000    -1.662000000
H    -2.100000000     5.073000000    -2.891000000
C    -0.270000000     4.115000000    -2.289000000
C     0.926000000     4.453000000    -1.664000000
H     0.875000000     5.358000000    -1.063000000
C    -0.189000000     3.174000000    -3.219000000
C     0.955000000     2.527000000    -3.595000000
H     0.965000000     1.693000000    -4.292000000
C     2.093000000     2.816000000    -2.968000000
O     3.109000000     1.909000000    -3.147000000
C     3.406000000     0.893000000    -2.125000000
C     3.778000000    -0.473000000    -2.721000000
C     3.025000000    -0.927000000    -3.823000000
H     2.312000000    -0.353000000    -4.409000000
C     4.699000000    -1.264000000    -2.045000000
H     5.184000000    -0.944000000    -1.127000000
O     4.461000000     1.483000000    -1.310000000
H     2.537000000     0.689000000    -1.482000000
C     2.132000000     3.832000000    -1.984000000
C     3.427000000     4.228000000    -1.229000000
H     3.385000000     5.296000000    -1.007000000
H     4.270000000     4.114000000    -1.914000000
C     3.632000000     3.418000000     0.033000000
C     4.083000000     2.067000000    -0.078000000
C     4.198000000     1.247000000     1.060000000
H     4.505000000     0.205000000     1.016000000
C     3.690000000     1.709000000     2.197000000
O     3.658000000     0.753000000     3.208000000
C     2.457000000     0.012000000     3.471000000
H     1.867000000     0.133000000     2.551000000
C     2.710000000    -1.460000000     3.731000000
C     1.629000000    -2.175000000     4.202000000
H     0.789000000    -1.566000000     4.526000000
C     3.843000000    -2.143000000     3.307000000
H     4.701000000    -1.677000000     2.831000000
C     3.991000000    -3.520000000     3.531000000
O     5.230000000    -4.113000000     3.123000000
C     2.896000000    -4.268000000     4.034000000
H     2.987000000    -5.328000000     4.257000000
C     1.784000000    -3.527000000     4.456000000
O     0.838000000    -4.314000000     5.225000000
C    -0.343000000    -3.929000000     5.772000000
C    -1.462000000    -3.608000000     4.939000000
H    -1.271000000    -3.459000000     3.879000000
C    -0.557000000    -3.995000000     7.126000000
H     0.288000000    -4.230000000     7.768000000
C    -1.808000000    -3.711000000     7.620000000
H    -1.902000000    -3.673000000     8.703000000
C    -2.924000000    -3.415000000     6.829000000
H    -3.896000000    -3.364000000     7.313000000
C    -2.799000000    -3.469000000     5.474000000
O    -3.912000000    -3.438000000     4.620000000
C    -4.014000000    -2.658000000     3.503000000
C    -4.796000000    -3.134000000     2.442000000
H    -4.961000000    -4.208000000     2.391000000
C    -5.066000000    -2.259000000     1.372000000
O    -5.742000000    -2.840000000     0.308000000
C    -6.368000000    -2.174000000    -0.672000000
C    -5.842000000    -2.174000000    -1.930000000
H    -5.056000000    -2.882000000    -2.181000000
C    -7.426000000    -1.307000000    -0.387000000
H    -7.757000000    -1.206000000     0.644000000
C    -7.990000000    -0.552000000    -1.424000000
H    -8.837000000     0.087000000    -1.189000000
C    -7.479000000    -0.592000000    -2.718000000
H    -7.801000000     0.068000000    -3.520000000
C    -6.316000000    -1.346000000    -2.931000000
O    -5.654000000    -1.394000000    -4.170000000
C    -4.562000000    -0.745000000    -4.554000000
C    -3.764000000    -1.197000000    -5.559000000
H    -4.028000000    -2.123000000    -6.063000000
C    -2.541000000    -0.624000000    -5.866000000
O    -1.752000000    -1.094000000    -6.886000000
C    -0.306000000    -1.002000000    -6.871000000
C     0.457000000    -1.885000000    -6.183000000
H    -0.028000000    -2.675000000    -5.615000000
C     0.301000000     0.022000000    -7.588000000
H    -0.358000000     0.598000000    -8.233000000
C     1.709000000     0.063000000    -7.668000000
H     2.163000000     0.836000000    -8.283000000
C     2.465000000    -0.821000000    -6.926000000
H     3.528000000    -0.595000000    -6.929000000
C     1.841000000    -1.803000000    -6.175000000
O     2.525000000    -2.664000000    -5.304000000
C     3.269000000    -2.191000000    -4.311000000
C     4.082000000    -3.064000000    -3.551000000
H     4.123000000    -4.141000000    -3.695000000
C     4.746000000    -2.592000000    -2.430000000
O     5.463000000    -3.477000000    -1.653000000
C     5.925000000    -3.266000000    -0.406000000
C     7.167000000    -2.641000000    -0.247000000
H     7.688000000    -2.150000000    -1.065000000
C     7.746000000    -2.611000000     1.015000000
H     8.738000000    -2.168000000     1.052000000
C     7.095000000    -3.107000000     2.147000000
H     7.486000000    -2.950000000     3.148000000
C     5.909000000    -3.805000000     1.958000000
C     5.329000000    -3.949000000     0.670000000
H     4.391000000    -4.496000000     0.624000000
C    -0.908000000    -1.170000000    -1.903000000
H    -0.890000000    -0.997000000    -2.976000000
C    -0.313000000    -0.276000000    -1.021000000
H     0.243000000     0.610000000    -1.317000000
C    -0.529000000    -0.461000000     0.349000000
H    -0.170000000     0.255000000     1.156000000
C    -1.208000000    -1.607000000     0.854000000
H    -1.366000000    -1.733000000     1.922000000
C    -1.836000000    -2.500000000    -0.096000000
H    -2.164000000    -3.472000000     0.265000000
C    -1.662000000    -2.303000000    -1.425000000
C    -2.186000000    -3.279000000    -2.456000000
O    -2.918000000    -4.166000000    -2.009000000
O    -1.962000000    -3.222000000    -3.618000000
O     2.055000000    -2.692000000    -0.451000000
H     1.157000000    -2.364000000    -0.507000000
H     2.517000000    -2.244000000    -1.159000000
O     2.796000000    -5.629000000    -1.417000000
H     2.544000000    -4.724000000    -1.601000000
H     2.390000000    -5.824000000    -0.572000000
O     0.647000000    -7.799000000    -1.968000000
H     1.423000000    -7.556000000    -2.473000000
H    -0.089000000    -7.503000000    -2.502000000
O    -6.747000000    -7.048000000     0.444000000
H    -6.326000000    -6.382000000    -0.099000000
H    -7.132000000    -7.660000000    -0.183000000
O    -2.146000000    -3.746000000    -9.101000000
H    -1.676000000    -4.580000000    -9.125000000
H    -2.170000000    -3.511000000    -8.174000000
O    -6.711000000    -3.475000000    -5.979000000
H    -5.867000000    -3.519000000    -5.529000000
H    -6.878000000    -2.539000000    -6.084000000
O    -7.386000000    -4.721000000    -3.425000000
H    -7.153000000    -4.343000000    -4.273000000
H    -6.548000000    -4.834000000    -2.975000000
O    -3.590000000    -8.229000000    -2.346000000
H    -3.716000000    -9.117000000    -2.011000000
H    -3.918000000    -8.263000000    -3.244000000
O     0.261000000    -4.670000000    -3.877000000
H    -0.167000000    -3.815000000    -3.855000000
H    -0.392000000    -5.274000000    -3.522000000
O    -2.179000000    -7.209000000    -0.001000000
H    -1.666000000    -6.711000000    -0.637000000
H    -2.224000000    -8.092000000    -0.369000000
O    -4.101000000    -7.589000000     1.803000000
H    -3.349000000    -7.419000000     1.236000000
H    -4.848000000    -7.223000000     1.328000000
O    -2.320000000    -6.660000000    -6.123000000
H    -1.826000000    -7.194000000    -5.500000000
H    -3.162000000    -7.107000000    -6.207000000
O     1.190000000    -4.720000000    -7.730000000
H     1.188000000    -4.953000000    -6.801000000
H     0.491000000    -5.250000000    -8.111000000
O    -1.934000000    -3.861000000    -6.357000000
H    -2.158000000    -4.791000000    -6.400000000
H    -2.091000000    -3.620000000    -5.444000000
O     2.004000000    -5.617000000     1.543000000
H     1.123000000    -5.984000000     1.614000000
H     1.898000000    -4.695000000     1.779000000
O     2.591000000    -5.932000000    -5.494000000
H     2.737000000    -6.615000000    -4.840000000
H     1.882000000    -5.401000000    -5.131000000
O    -1.886000000    -6.388000000    -3.014000000
H    -2.427000000    -7.155000000    -2.827000000
H    -2.338000000    -5.665000000    -2.580000000
O    -4.384000000    -4.306000000    -4.453000000
H    -3.754000000    -3.963000000    -3.819000000
H    -4.095000000    -5.203000000    -4.618000000
O    -5.041000000    -5.863000000    -1.306000000
H    -4.450000000    -5.113000000    -1.243000000
H    -4.483000000    -6.585000000    -1.596000000
