215
-1440.29210
C    -4.402000000    -3.033000000     0.739000000
H    -4.993000000    -2.142000000     0.545000000
C    -3.493000000    -2.928000000     1.802000000
C    -2.755000000    -4.053000000     2.201000000
H    -2.017000000    -4.059000000     2.999000000
C    -3.210000000    -1.498000000     2.407000000
O    -4.389000000    -0.619000000     2.331000000
H    -2.361000000    -1.106000000     1.827000000
O    -2.756000000    -1.737000000     3.788000000
C    -1.703000000    -0.925000000     4.272000000
C    -0.460000000    -1.472000000     4.510000000
H    -0.258000000    -2.508000000     4.249000000
C     0.643000000    -0.782000000     4.760000000
O     1.893000000    -1.338000000     4.685000000
C     0.487000000     0.608000000     4.869000000
C     1.717000000     1.608000000     5.045000000
H     1.357000000     2.471000000     5.610000000
C     2.305000000     1.943000000     3.731000000
C     1.870000000     3.193000000     3.170000000
H     1.201000000     3.855000000     3.714000000
H     2.431000000     1.122000000     5.713000000
C    -0.751000000     1.228000000     4.642000000
H    -0.873000000     2.298000000     4.787000000
C    -1.862000000     0.418000000     4.408000000
C    -3.168000000     1.132000000     4.323000000
H    -3.201000000     2.102000000     4.823000000
H    -3.956000000     0.487000000     4.716000000
C    -3.549000000     1.559000000     2.879000000
C    -3.064000000     2.806000000     2.375000000
H    -2.697000000     3.531000000     3.097000000
C    -4.132000000     0.717000000     2.002000000
C    -4.293000000     1.076000000     0.660000000
H    -4.847000000     0.435000000    -0.021000000
C    -3.935000000     2.398000000     0.226000000
O    -3.925000000     2.775000000    -1.130000000
C    -2.647000000     2.623000000    -1.850000000
C    -2.924000000     1.930000000    -3.176000000
C    -2.160000000     2.238000000    -4.298000000
H    -1.478000000     3.080000000    -4.218000000
C    -3.764000000     0.820000000    -3.296000000
H    -4.308000000     0.467000000    -2.424000000
O    -2.122000000     3.951000000    -2.082000000
H    -2.026000000     1.943000000    -1.247000000
C    -3.344000000     3.306000000     1.121000000
C    -2.846000000     4.656000000     0.675000000
H    -3.114000000     5.359000000     1.466000000
H    -3.528000000     4.932000000    -0.133000000
C    -1.358000000     4.672000000     0.111000000
C    -0.302000000     4.966000000     0.963000000
H    -0.454000000     5.191000000     2.015000000
C    -1.094000000     4.410000000    -1.223000000
C     0.209000000     4.398000000    -1.704000000
H     0.479000000     4.261000000    -2.747000000
C     1.263000000     4.587000000    -0.831000000
O     2.485000000     4.365000000    -1.354000000
C     3.074000000     3.040000000    -1.143000000
C     3.813000000     2.442000000    -2.325000000
C     3.141000000     2.472000000    -3.540000000
H     2.244000000     3.062000000    -3.707000000
C     4.967000000     1.780000000    -2.184000000
H     5.497000000     1.751000000    -1.235000000
O     3.922000000     3.143000000     0.051000000
H     2.184000000     2.412000000    -0.989000000
C     1.023000000     4.915000000     0.501000000
C     2.128000000     5.046000000     1.507000000
H     1.751000000     5.544000000     2.403000000
H     3.039000000     5.496000000     1.107000000
C     2.431000000     3.653000000     1.955000000
C     3.367000000     2.803000000     1.282000000
C     3.813000000     1.681000000     1.935000000
H     4.606000000     1.119000000     1.447000000
C     3.200000000     1.143000000     2.982000000
O     3.570000000    -0.116000000     3.461000000
C     2.533000000    -1.152000000     3.417000000
H     1.863000000    -0.775000000     2.630000000
C     3.037000000    -2.398000000     2.835000000
C     2.694000000    -3.694000000     3.301000000
H     2.207000000    -3.781000000     4.269000000
C     3.593000000    -2.341000000     1.526000000
H     3.729000000    -1.347000000     1.106000000
C     3.818000000    -3.485000000     0.744000000
O     4.329000000    -3.363000000    -0.550000000
C     3.514000000    -4.702000000     1.317000000
H     3.818000000    -5.567000000     0.732000000
C     2.971000000    -4.844000000     2.589000000
O     2.556000000    -6.050000000     3.010000000
C     1.201000000    -6.367000000     3.263000000
C     0.251000000    -6.292000000     2.306000000
H     0.520000000    -6.102000000     1.270000000
C     0.873000000    -6.559000000     4.630000000
H     1.746000000    -6.547000000     5.278000000
C    -0.470000000    -6.590000000     4.927000000
H    -0.805000000    -6.655000000     5.958000000
C    -1.445000000    -6.482000000     3.955000000
H    -2.509000000    -6.465000000     4.176000000
C    -1.085000000    -6.425000000     2.622000000
O    -2.138000000    -6.305000000     1.751000000
C    -2.848000000    -5.212000000     1.469000000
C    -3.643000000    -5.273000000     0.315000000
H    -3.565000000    -6.159000000    -0.310000000
C    -4.379000000    -4.129000000    -0.098000000
O    -5.157000000    -4.338000000    -1.203000000
C    -5.743000000    -3.296000000    -1.843000000
C    -5.035000000    -2.676000000    -2.824000000
H    -4.066000000    -3.058000000    -3.138000000
C    -6.873000000    -2.750000000    -1.315000000
H    -7.374000000    -3.207000000    -0.465000000
C    -7.355000000    -1.542000000    -1.843000000
H    -8.285000000    -1.085000000    -1.515000000
C    -6.741000000    -0.927000000    -2.935000000
H    -7.230000000    -0.148000000    -3.514000000
C    -5.561000000    -1.517000000    -3.442000000
O    -4.902000000    -0.940000000    -4.502000000
C    -3.938000000     0.047000000    -4.452000000
C    -3.239000000     0.471000000    -5.618000000
H    -3.436000000    -0.065000000    -6.543000000
C    -2.306000000     1.543000000    -5.493000000
O    -1.624000000     1.935000000    -6.608000000
C    -0.415000000     2.617000000    -6.552000000
C     0.775000000     1.948000000    -6.320000000
H     0.862000000     0.868000000    -6.234000000
C    -0.349000000     4.017000000    -6.718000000
H    -1.301000000     4.539000000    -6.769000000
C     0.849000000     4.657000000    -6.596000000
H     0.875000000     5.726000000    -6.794000000
C     2.045000000     3.951000000    -6.413000000
H     3.030000000     4.409000000    -6.375000000
C     1.992000000     2.564000000    -6.267000000
O     3.129000000     1.894000000    -5.911000000
C     3.621000000     1.741000000    -4.618000000
C     4.772000000     1.050000000    -4.472000000
H     5.166000000     0.354000000    -5.207000000
C     5.455000000     0.993000000    -3.254000000
O     6.499000000     0.118000000    -3.069000000
C     6.506000000    -0.823000000    -2.124000000
C     7.700000000    -0.945000000    -1.302000000
H     8.583000000    -0.360000000    -1.548000000
C     7.750000000    -1.966000000    -0.355000000
H     8.669000000    -2.118000000     0.206000000
C     6.734000000    -2.791000000    -0.169000000
H     6.692000000    -3.550000000     0.608000000
C     5.442000000    -2.549000000    -0.812000000
C     5.384000000    -1.543000000    -1.826000000
H     4.455000000    -1.294000000    -2.333000000
C     0.431000000    -0.079000000    -1.647000000
H     0.579000000     0.442000000    -2.589000000
C     0.000000000     0.588000000    -0.524000000
H    -0.080000000     1.664000000    -0.395000000
C    -0.187000000    -0.142000000     0.658000000
H    -0.421000000     0.450000000     1.556000000
C    -0.086000000    -1.542000000     0.675000000
H    -0.485000000    -2.062000000     1.542000000
C     0.217000000    -2.257000000    -0.481000000
H     0.228000000    -3.344000000    -0.455000000
C     0.564000000    -1.491000000    -1.645000000
C     0.934000000    -2.117000000    -2.929000000
O     1.072000000    -3.292000000    -3.025000000
O     1.190000000    -1.466000000    -3.933000000
O     2.621000000    -4.243000000    -8.495000000
H     1.690000000    -4.327000000    -8.293000000
H     2.673000000    -4.365000000    -9.443000000
O    -2.510000000    -1.308000000    -1.032000000
H    -1.718000000    -0.878000000    -0.709000000
H    -2.210000000    -2.164000000    -1.336000000
O    -0.117000000    -6.324000000    -5.983000000
H     0.567000000    -5.693000000    -5.757000000
H    -0.658000000    -6.383000000    -5.196000000
O     3.388000000    -2.384000000    -5.196000000
H     2.740000000    -1.804000000    -4.796000000
H     3.819000000    -2.808000000    -4.454000000
O    -0.261000000    -2.315000000    -6.216000000
H     0.149000000    -3.163000000    -6.045000000
H     0.336000000    -1.677000000    -5.825000000
O    -0.857000000    -0.506000000    -8.507000000
H    -0.754000000    -1.109000000    -7.771000000
H    -1.581000000    -0.871000000    -9.016000000
O    -4.459000000    -5.341000000    -5.265000000
H    -5.210000000    -4.981000000    -5.738000000
H    -3.748000000    -4.725000000    -5.440000000
O    -3.454000000    -3.327000000    -7.837000000
H    -2.943000000    -3.273000000    -7.029000000
H    -3.228000000    -2.530000000    -8.317000000
O     3.411000000    -1.094000000    -7.514000000
H     3.389000000    -1.639000000    -6.728000000
H     2.767000000    -1.492000000    -8.100000000
O    -2.324000000    -3.650000000    -5.039000000
H    -1.878000000    -3.987000000    -4.262000000
H    -1.926000000    -2.793000000    -5.191000000
O     5.875000000    -0.047000000    -7.481000000
H     5.950000000     0.183000000    -8.407000000
H     5.012000000    -0.454000000    -7.404000000
O     4.547000000    -4.406000000    -3.967000000
H     3.970000000    -5.151000000    -4.134000000
H     5.133000000    -4.707000000    -3.272000000
O     1.280000000    -4.321000000    -5.348000000
H     1.221000000    -3.920000000    -4.481000000
H     2.105000000    -3.995000000    -5.708000000
O     2.524000000    -5.192000000    -2.111000000
H     2.238000000    -4.441000000    -2.632000000
H     3.150000000    -4.826000000    -1.487000000
O    -1.660000000    -6.898000000    -3.951000000
H    -2.562000000    -6.580000000    -3.892000000
H    -1.709000000    -7.810000000    -3.664000000
O     5.754000000    -3.743000000    -6.909000000
H     5.054000000    -3.496000000    -6.305000000
H     6.014000000    -4.621000000    -6.628000000
O    -1.443000000    -4.066000000    -2.404000000
H    -0.521000000    -3.956000000    -2.637000000
H    -1.530000000    -4.998000000    -2.204000000
O    -0.012000000    -4.947000000    -8.327000000
H    -0.045000000    -5.513000000    -7.555000000
H    -0.585000000    -4.212000000    -8.109000000
O     0.728000000    -7.108000000    -1.862000000
H    -0.006000000    -6.958000000    -2.457000000
H     1.344000000    -6.402000000    -2.057000000
