215
-1467.17596
C    -4.615000000    -2.528000000     1.166000000
H    -5.280000000    -1.674000000     1.269000000
C    -3.518000000    -2.647000000     1.963000000
C    -2.704000000    -3.818000000     1.844000000
H    -1.800000000    -3.979000000     2.426000000
C    -2.897000000    -1.501000000     2.878000000
O    -3.948000000    -0.562000000     3.153000000
H    -2.079000000    -1.048000000     2.298000000
O    -2.281000000    -1.958000000     4.108000000
C    -1.181000000    -1.269000000     4.567000000
C     0.019000000    -1.939000000     4.431000000
H    -0.041000000    -2.979000000     4.119000000
C     1.233000000    -1.339000000     4.567000000
O     2.361000000    -2.002000000     4.115000000
C     1.291000000    -0.005000000     4.878000000
C     2.626000000     0.711000000     4.925000000
H     2.496000000     1.532000000     5.633000000
C     3.104000000     1.300000000     3.589000000
C     2.724000000     2.571000000     3.316000000
H     2.069000000     3.156000000     3.956000000
H     3.392000000     0.129000000     5.442000000
C     0.082000000     0.671000000     4.973000000
H     0.166000000     1.741000000     5.143000000
C    -1.142000000     0.073000000     4.863000000
C    -2.389000000     0.949000000     5.123000000
H    -2.091000000     1.768000000     5.782000000
H    -3.154000000     0.387000000     5.663000000
C    -2.922000000     1.558000000     3.803000000
C    -2.557000000     2.884000000     3.453000000
H    -2.060000000     3.541000000     4.162000000
C    -3.565000000     0.741000000     2.915000000
C    -3.817000000     1.271000000     1.692000000
H    -4.150000000     0.628000000     0.881000000
C    -3.458000000     2.566000000     1.261000000
O    -3.714000000     2.977000000    -0.031000000
C    -2.602000000     2.974000000    -0.970000000
C    -3.037000000     2.387000000    -2.325000000
C    -2.356000000     2.612000000    -3.522000000
H    -1.460000000     3.225000000    -3.571000000
C    -4.098000000     1.440000000    -2.410000000
H    -4.558000000     1.154000000    -1.468000000
O    -2.226000000     4.320000000    -1.182000000
H    -1.756000000     2.396000000    -0.569000000
C    -2.807000000     3.368000000     2.165000000
C    -2.331000000     4.733000000     1.712000000
H    -2.212000000     5.464000000     2.515000000
H    -3.060000000     5.084000000     0.979000000
C    -1.059000000     4.671000000     0.932000000
C     0.181000000     4.736000000     1.586000000
H     0.270000000     4.856000000     2.663000000
C    -1.062000000     4.585000000    -0.464000000
C     0.172000000     4.391000000    -1.102000000
H     0.147000000     4.400000000    -2.189000000
C     1.425000000     4.383000000    -0.450000000
O     2.505000000     4.137000000    -1.117000000
C     3.026000000     2.797000000    -1.056000000
C     3.494000000     2.321000000    -2.401000000
C     2.770000000     2.693000000    -3.552000000
H     1.878000000     3.293000000    -3.393000000
C     4.621000000     1.501000000    -2.505000000
H     5.214000000     1.198000000    -1.646000000
O     4.083000000     2.837000000    -0.126000000
H     2.376000000     2.051000000    -0.576000000
C     1.384000000     4.610000000     0.941000000
C     2.678000000     4.593000000     1.777000000
H     2.509000000     5.183000000     2.680000000
H     3.497000000     5.011000000     1.188000000
C     3.138000000     3.133000000     2.105000000
C     3.859000000     2.372000000     1.223000000
C     4.264000000     1.094000000     1.518000000
H     4.760000000     0.415000000     0.829000000
C     3.823000000     0.535000000     2.693000000
O     3.973000000    -0.777000000     2.962000000
C     2.841000000    -1.657000000     2.808000000
H     2.013000000    -1.117000000     2.325000000
C     3.149000000    -2.876000000     1.917000000
C     2.749000000    -4.185000000     2.205000000
H     2.166000000    -4.369000000     3.104000000
C     3.865000000    -2.665000000     0.743000000
H     4.025000000    -1.628000000     0.459000000
C     3.985000000    -3.744000000    -0.202000000
O     4.499000000    -3.478000000    -1.464000000
C     3.453000000    -5.027000000     0.038000000
H     3.612000000    -5.899000000    -0.591000000
C     2.842000000    -5.254000000     1.298000000
O     2.356000000    -6.511000000     1.514000000
C     1.093000000    -6.767000000     1.926000000
C     0.028000000    -6.213000000     1.179000000
H     0.266000000    -5.726000000     0.237000000
C     0.801000000    -7.437000000     3.090000000
H     1.621000000    -7.883000000     3.647000000
C    -0.488000000    -7.700000000     3.516000000
H    -0.661000000    -8.352000000     4.369000000
C    -1.559000000    -7.134000000     2.783000000
H    -2.585000000    -7.183000000     3.139000000
C    -1.289000000    -6.414000000     1.617000000
O    -2.367000000    -6.022000000     0.839000000
C    -3.127000000    -4.915000000     1.077000000
C    -4.226000000    -4.735000000     0.274000000
H    -4.456000000    -5.515000000    -0.447000000
C    -4.968000000    -3.565000000     0.331000000
O    -6.098000000    -3.476000000    -0.449000000
C    -6.559000000    -2.349000000    -1.084000000
C    -5.722000000    -1.689000000    -1.997000000
H    -4.655000000    -1.869000000    -2.102000000
C    -7.921000000    -2.001000000    -0.992000000
H    -8.547000000    -2.610000000    -0.345000000
C    -8.433000000    -1.167000000    -1.956000000
H    -9.512000000    -1.032000000    -1.971000000
C    -7.637000000    -0.540000000    -2.854000000
H    -8.012000000     0.250000000    -3.499000000
C    -6.297000000    -0.738000000    -2.785000000
O    -5.516000000    -0.017000000    -3.754000000
C    -4.503000000     0.867000000    -3.645000000
C    -3.865000000     1.272000000    -4.800000000
H    -4.111000000     0.980000000    -5.818000000
C    -2.785000000     2.121000000    -4.757000000
O    -2.254000000     2.549000000    -5.902000000
C    -1.098000000     3.231000000    -6.069000000
C     0.118000000     2.490000000    -6.016000000
H     0.168000000     1.425000000    -5.805000000
C    -1.076000000     4.642000000    -6.181000000
H    -2.021000000     5.161000000    -6.319000000
C     0.120000000     5.347000000    -6.165000000
H     0.151000000     6.418000000    -6.347000000
C     1.276000000     4.606000000    -6.036000000
H     2.154000000     5.220000000    -5.851000000
C     1.284000000     3.260000000    -6.043000000
O     2.486000000     2.602000000    -5.973000000
C     3.202000000     2.305000000    -4.782000000
C     4.318000000     1.459000000    -4.872000000
H     4.643000000     1.183000000    -5.872000000
C     5.023000000     1.073000000    -3.783000000
O     6.119000000     0.268000000    -3.894000000
C     6.376000000    -0.773000000    -3.077000000
C     7.691000000    -1.111000000    -2.653000000
H     8.564000000    -0.611000000    -3.063000000
C     7.864000000    -2.146000000    -1.710000000
H     8.821000000    -2.411000000    -1.266000000
C     6.818000000    -2.950000000    -1.318000000
H     6.948000000    -3.715000000    -0.556000000
C     5.537000000    -2.631000000    -1.809000000
C     5.324000000    -1.578000000    -2.726000000
H     4.316000000    -1.365000000    -3.072000000
C     0.117000000    -0.754000000    -2.351000000
H    -0.141000000    -0.709000000    -3.406000000
C     0.255000000     0.530000000    -1.763000000
H     0.181000000     1.436000000    -2.360000000
C     0.348000000     0.572000000    -0.344000000
H     0.423000000     1.527000000     0.134000000
C     0.404000000    -0.556000000     0.398000000
H     0.301000000    -0.310000000     1.452000000
C     0.489000000    -1.795000000    -0.180000000
H     0.571000000    -2.720000000     0.385000000
C     0.373000000    -1.877000000    -1.570000000
C     0.365000000    -3.173000000    -2.313000000
O     0.152000000    -4.220000000    -1.722000000
O     0.324000000    -3.242000000    -3.557000000
O     3.431000000    -5.955000000    -6.926000000
H     3.967000000    -5.368000000    -7.460000000
H     3.520000000    -5.618000000    -6.035000000
O    -1.883000000    -1.915000000    -5.361000000
H    -2.760000000    -2.171000000    -5.076000000
H    -1.319000000    -2.631000000    -5.069000000
O     2.804000000    -8.192000000    -1.588000000
H     1.998000000    -8.112000000    -1.079000000
H     2.682000000    -7.594000000    -2.326000000
O    -1.308000000    -2.041000000    -8.036000000
H    -1.527000000    -1.823000000    -7.130000000
H    -2.062000000    -1.743000000    -8.544000000
O    -4.930000000    -4.884000000    -3.976000000
H    -4.602000000    -4.358000000    -3.246000000
H    -4.765000000    -4.347000000    -4.751000000
O     1.935000000    -6.149000000    -3.185000000
H     1.274000000    -5.481000000    -3.002000000
H     1.493000000    -6.772000000    -3.762000000
O    -1.370000000    -6.144000000    -2.595000000
H    -0.799000000    -5.382000000    -2.498000000
H    -1.038000000    -6.775000000    -1.957000000
O    -2.843000000    -3.621000000    -2.727000000
H    -2.082000000    -3.046000000    -2.638000000
H    -2.619000000    -4.395000000    -2.209000000
O    -1.138000000    -4.964000000    -7.789000000
H    -1.323000000    -4.025000000    -7.775000000
H    -0.819000000    -5.158000000    -6.908000000
O     1.322000000    -1.006000000    -7.751000000
H     0.461000000    -1.394000000    -7.907000000
H     1.623000000    -1.411000000    -6.938000000
O    -0.118000000    -8.590000000    -1.044000000
H    -0.139000000    -8.890000000    -0.135000000
H    -0.987000000    -8.803000000    -1.386000000
O    -1.558000000    -8.552000000    -5.715000000
H    -2.001000000    -9.308000000    -6.100000000
H    -2.183000000    -8.206000000    -5.079000000
O    -3.487000000    -7.410000000    -3.755000000
H    -4.130000000    -6.724000000    -3.935000000
H    -2.708000000    -6.938000000    -3.461000000
O     1.741000000    -2.508000000    -5.578000000
H     1.369000000    -2.444000000    -4.698000000
H     1.527000000    -3.396000000    -5.864000000
O     4.721000000    -3.334000000    -6.432000000
H     3.952000000    -2.909000000    -6.054000000
H     5.260000000    -3.570000000    -5.676000000
O     4.430000000    -5.165000000    -4.281000000
H     3.626000000    -5.536000000    -3.917000000
H     4.719000000    -4.530000000    -3.625000000
O     1.537000000    -3.810000000    -9.017000000
H     0.741000000    -3.655000000    -9.524000000
H     1.482000000    -3.191000000    -8.288000000
O    -0.603000000    -4.831000000    -5.166000000
H    -0.184000000    -4.135000000    -4.660000000
H    -0.865000000    -5.478000000    -4.511000000
O     0.630000000    -8.164000000    -4.288000000
H    -0.190000000    -8.201000000    -4.780000000
H     0.769000000    -9.061000000    -3.986000000
