215
-1465.98074
C    -3.657000000    -2.746000000    -0.958000000
H    -4.076000000    -1.766000000    -1.173000000
C    -3.212000000    -3.059000000     0.366000000
C    -2.817000000    -4.374000000     0.685000000
H    -2.386000000    -4.638000000     1.647000000
C    -3.196000000    -2.025000000     1.487000000
O    -4.412000000    -1.278000000     1.633000000
H    -2.377000000    -1.297000000     1.390000000
O    -2.915000000    -2.719000000     2.770000000
C    -1.998000000    -2.043000000     3.540000000
C    -0.727000000    -2.571000000     3.485000000
H    -0.551000000    -3.468000000     2.896000000
C     0.318000000    -1.883000000     4.112000000
O     1.598000000    -2.426000000     4.150000000
C     0.107000000    -0.730000000     4.855000000
C     1.298000000     0.056000000     5.416000000
H     0.842000000     0.739000000     6.137000000
C     1.983000000     0.843000000     4.405000000
C     1.646000000     2.199000000     4.269000000
H     0.803000000     2.667000000     4.770000000
H     2.118000000    -0.519000000     5.849000000
C    -1.200000000    -0.220000000     4.931000000
H    -1.364000000     0.634000000     5.582000000
C    -2.216000000    -0.861000000     4.214000000
C    -3.574000000    -0.186000000     4.192000000
H    -3.665000000     0.452000000     5.074000000
H    -4.281000000    -1.000000000     4.362000000
C    -3.764000000     0.662000000     2.953000000
C    -3.508000000     1.984000000     2.988000000
H    -3.080000000     2.415000000     3.889000000
C    -4.178000000     0.039000000     1.728000000
C    -4.324000000     0.764000000     0.554000000
H    -4.630000000     0.239000000    -0.347000000
C    -3.993000000     2.108000000     0.532000000
O    -4.063000000     2.801000000    -0.683000000
C    -2.780000000     3.032000000    -1.368000000
C    -2.931000000     2.704000000    -2.796000000
C    -1.954000000     3.172000000    -3.691000000
H    -1.174000000     3.862000000    -3.381000000
C    -3.935000000     1.877000000    -3.280000000
H    -4.600000000     1.427000000    -2.546000000
O    -2.130000000     4.279000000    -1.105000000
H    -2.172000000     2.197000000    -0.989000000
C    -3.524000000     2.719000000     1.766000000
C    -3.146000000     4.226000000     1.724000000
H    -3.394000000     4.692000000     2.681000000
H    -3.832000000     4.621000000     0.972000000
C    -1.699000000     4.338000000     1.380000000
C    -0.728000000     4.252000000     2.362000000
H    -1.001000000     4.064000000     3.397000000
C    -1.300000000     4.304000000     0.031000000
C     0.029000000     4.501000000    -0.330000000
H     0.362000000     4.531000000    -1.365000000
C     0.994000000     4.396000000     0.645000000
O     2.268000000     4.413000000     0.342000000
C     2.981000000     3.136000000     0.375000000
C     3.668000000     2.959000000    -0.966000000
C     3.197000000     3.562000000    -2.144000000
H     2.393000000     4.287000000    -2.046000000
C     4.771000000     2.118000000    -1.064000000
H     5.232000000     1.685000000    -0.180000000
O     3.883000000     3.168000000     1.525000000
H     2.333000000     2.253000000     0.467000000
C     0.615000000     4.376000000     2.029000000
C     1.692000000     4.423000000     3.098000000
H     1.278000000     4.875000000     4.002000000
H     2.535000000     5.059000000     2.819000000
C     2.271000000     3.039000000     3.322000000
C     3.344000000     2.549000000     2.604000000
C     3.642000000     1.203000000     2.688000000
H     4.386000000     0.752000000     2.036000000
C     2.917000000     0.354000000     3.478000000
O     3.248000000    -0.988000000     3.457000000
C     2.312000000    -1.880000000     2.976000000
H     1.617000000    -1.263000000     2.388000000
C     2.873000000    -3.001000000     2.099000000
C     2.341000000    -4.312000000     2.037000000
H     1.494000000    -4.653000000     2.628000000
C     3.952000000    -2.647000000     1.268000000
H     4.331000000    -1.631000000     1.349000000
C     4.541000000    -3.558000000     0.379000000
O     5.692000000    -3.294000000    -0.314000000
C     4.048000000    -4.843000000     0.400000000
H     4.592000000    -5.549000000    -0.222000000
C     2.938000000    -5.158000000     1.186000000
O     2.392000000    -6.427000000     0.967000000
C     1.088000000    -6.780000000     1.280000000
C    -0.047000000    -6.341000000     0.536000000
H     0.185000000    -5.683000000    -0.298000000
C     0.867000000    -7.653000000     2.382000000
H     1.760000000    -8.125000000     2.784000000
C    -0.409000000    -8.135000000     2.705000000
H    -0.430000000    -8.914000000     3.462000000
C    -1.504000000    -7.708000000     1.915000000
H    -2.445000000    -8.181000000     2.185000000
C    -1.351000000    -6.864000000     0.810000000
O    -2.417000000    -6.608000000     0.004000000
C    -2.735000000    -5.313000000    -0.328000000
C    -3.286000000    -5.097000000    -1.567000000
H    -3.324000000    -5.872000000    -2.328000000
C    -3.701000000    -3.776000000    -1.914000000
O    -4.135000000    -3.557000000    -3.147000000
C    -5.020000000    -2.578000000    -3.482000000
C    -4.582000000    -1.417000000    -4.142000000
H    -3.520000000    -1.287000000    -4.336000000
C    -6.406000000    -2.663000000    -3.223000000
H    -6.826000000    -3.535000000    -2.728000000
C    -7.378000000    -1.711000000    -3.592000000
H    -8.422000000    -1.863000000    -3.331000000
C    -6.851000000    -0.513000000    -4.167000000
H    -7.534000000     0.236000000    -4.559000000
C    -5.454000000    -0.356000000    -4.402000000
O    -5.085000000     0.738000000    -5.144000000
C    -4.076000000     1.589000000    -4.714000000
C    -3.099000000     2.065000000    -5.558000000
H    -3.174000000     1.859000000    -6.622000000
C    -2.043000000     2.818000000    -5.090000000
O    -0.940000000     2.924000000    -5.931000000
C     0.050000000     3.858000000    -5.654000000
C     1.305000000     3.377000000    -5.354000000
H     1.480000000     2.305000000    -5.318000000
C    -0.257000000     5.229000000    -5.610000000
H    -1.283000000     5.490000000    -5.856000000
C     0.773000000     6.127000000    -5.271000000
H     0.677000000     7.206000000    -5.366000000
C     2.019000000     5.639000000    -4.841000000
H     2.820000000     6.346000000    -4.644000000
C     2.243000000     4.250000000    -4.864000000
O     3.533000000     3.805000000    -4.617000000
C     3.772000000     3.222000000    -3.386000000
C     4.892000000     2.394000000    -3.478000000
H     5.297000000     2.149000000    -4.457000000
C     5.280000000     1.751000000    -2.326000000
O     6.232000000     0.801000000    -2.381000000
C     6.606000000    -0.038000000    -1.359000000
C     7.638000000     0.229000000    -0.570000000
H     8.120000000     1.185000000    -0.759000000
C     8.155000000    -0.636000000     0.384000000
H     9.023000000    -0.308000000     0.951000000
C     7.437000000    -1.808000000     0.578000000
H     7.615000000    -2.539000000     1.362000000
C     6.330000000    -2.058000000    -0.234000000
C     5.958000000    -1.214000000    -1.244000000
H     5.209000000    -1.493000000    -1.982000000
C     1.457000000    -0.060000000    -2.233000000
H     1.973000000     0.555000000    -2.966000000
C     0.711000000     0.657000000    -1.315000000
H     0.622000000     1.730000000    -1.458000000
C     0.011000000    -0.029000000    -0.310000000
H    -0.483000000     0.469000000     0.501000000
C     0.312000000    -1.417000000    -0.231000000
H    -0.087000000    -2.019000000     0.582000000
C     1.100000000    -2.110000000    -1.060000000
H     1.241000000    -3.174000000    -0.888000000
C     1.760000000    -1.446000000    -2.116000000
C     2.580000000    -2.237000000    -3.056000000
O     2.643000000    -3.447000000    -2.963000000
O     3.257000000    -1.717000000    -3.935000000
O     4.848000000    -5.117000000    -3.098000000
H     5.537000000    -4.506000000    -3.359000000
H     4.034000000    -4.634000000    -3.237000000
O    -1.633000000    -0.277000000    -2.840000000
H    -2.230000000    -0.973000000    -2.562000000
H    -0.795000000    -0.507000000    -2.440000000
O     3.833000000    -6.833000000    -5.811000000
H     4.547000000    -7.163000000    -6.355000000
H     4.194000000    -6.055000000    -5.388000000
O     6.092000000    -2.788000000    -7.647000000
H     6.876000000    -3.111000000    -7.203000000
H     5.929000000    -3.427000000    -8.341000000
O    -1.377000000    -0.639000000    -5.855000000
H    -1.541000000    -0.011000000    -5.152000000
H    -0.466000000    -0.905000000    -5.731000000
O     7.263000000     0.999000000    -5.722000000
H     7.236000000     1.158000000    -6.665000000
H     6.346000000     0.879000000    -5.473000000
O    -1.939000000    -4.739000000    -6.476000000
H    -1.151000000    -4.949000000    -5.975000000
H    -1.618000000    -4.249000000    -7.233000000
O     3.991000000    -3.951000000    -5.534000000
H     3.793000000    -3.604000000    -6.404000000
H     3.635000000    -3.299000000    -4.930000000
O     1.499000000    -5.721000000    -3.108000000
H     1.884000000    -4.902000000    -2.797000000
H     1.953000000    -6.402000000    -2.611000000
O     0.477000000    -4.782000000    -5.408000000
H     0.956000000    -3.979000000    -5.204000000
H     0.686000000    -5.375000000    -4.686000000
O    -1.021000000    -2.900000000    -8.355000000
H    -0.514000000    -2.117000000    -8.141000000
H    -1.888000000    -2.567000000    -8.588000000
O     2.637000000     0.587000000    -7.797000000
H     1.742000000     0.251000000    -7.743000000
H     2.899000000     0.717000000    -6.886000000
O     7.957000000    -1.348000000    -4.108000000
H     7.795000000    -0.414000000    -4.241000000
H     7.559000000    -1.542000000    -3.259000000
O     1.350000000    -6.894000000    -7.061000000
H     2.051000000    -6.813000000    -6.414000000
H     1.258000000    -6.013000000    -7.425000000
O     4.966000000    -0.658000000    -5.831000000
H     4.530000000    -1.172000000    -5.151000000
H     5.374000000    -1.311000000    -6.399000000
O     2.815000000    -2.256000000    -7.537000000
H     3.260000000    -2.693000000    -8.262000000
H     3.273000000    -1.421000000    -7.442000000
O     7.764000000    -5.116000000    -0.900000000
H     6.893000000    -4.787000000    -0.679000000
H     8.036000000    -5.612000000    -0.128000000
O     3.808000000    -7.425000000    -2.612000000
H     4.399000000    -6.684000000    -2.748000000
H     3.690000000    -7.800000000    -3.485000000
O     1.253000000    -0.910000000    -5.532000000
H     1.943000000    -0.951000000    -4.870000000
H     1.672000000    -1.221000000    -6.334000000
