215
-1441.06528
C    -4.478000000    -2.535000000    -0.397000000
H    -4.965000000    -1.565000000    -0.449000000
C    -3.744000000    -2.831000000     0.766000000
C    -2.960000000    -4.037000000     0.810000000
H    -2.263000000    -4.232000000     1.621000000
C    -3.355000000    -1.721000000     1.738000000
O    -4.455000000    -0.795000000     1.962000000
H    -2.596000000    -1.106000000     1.233000000
O    -2.863000000    -2.285000000     2.995000000
C    -1.890000000    -1.649000000     3.745000000
C    -0.686000000    -2.301000000     3.830000000
H    -0.649000000    -3.307000000     3.420000000
C     0.430000000    -1.680000000     4.472000000
O     1.544000000    -2.451000000     4.306000000
C     0.342000000    -0.472000000     5.041000000
C     1.561000000     0.302000000     5.485000000
H     1.325000000     1.133000000     6.154000000
C     2.316000000     0.905000000     4.214000000
C     2.107000000     2.260000000     3.935000000
H     1.406000000     2.776000000     4.587000000
H     2.270000000    -0.296000000     6.062000000
C    -0.923000000     0.235000000     5.049000000
H    -1.091000000     1.094000000     5.694000000
C    -1.996000000    -0.340000000     4.383000000
C    -3.314000000     0.393000000     4.325000000
H    -3.271000000     1.064000000     5.185000000
H    -4.192000000    -0.221000000     4.536000000
C    -3.488000000     1.143000000     3.042000000
C    -2.997000000     2.461000000     2.965000000
H    -2.495000000     3.011000000     3.756000000
C    -4.207000000     0.592000000     1.935000000
C    -4.414000000     1.267000000     0.735000000
H    -4.882000000     0.734000000    -0.088000000
C    -3.800000000     2.518000000     0.672000000
O    -3.873000000     2.988000000    -0.556000000
C    -2.602000000     3.020000000    -1.348000000
C    -2.823000000     2.680000000    -2.753000000
C    -1.964000000     3.247000000    -3.735000000
H    -1.186000000     3.980000000    -3.537000000
C    -3.831000000     1.833000000    -3.201000000
H    -4.549000000     1.479000000    -2.466000000
O    -1.958000000     4.276000000    -1.195000000
H    -1.906000000     2.220000000    -1.054000000
C    -3.114000000     3.115000000     1.730000000
C    -2.610000000     4.553000000     1.695000000
H    -2.597000000     5.035000000     2.674000000
H    -3.300000000     5.181000000     1.128000000
C    -1.184000000     4.542000000     1.116000000
C    -0.086000000     4.550000000     1.956000000
H    -0.316000000     4.553000000     3.018000000
C    -0.925000000     4.467000000    -0.267000000
C     0.355000000     4.435000000    -0.764000000
H     0.419000000     4.300000000    -1.841000000
C     1.446000000     4.311000000     0.079000000
O     2.768000000     4.136000000    -0.378000000
C     3.203000000     2.757000000    -0.192000000
C     3.748000000     2.168000000    -1.514000000
C     3.388000000     2.746000000    -2.759000000
H     2.586000000     3.477000000    -2.832000000
C     4.630000000     1.077000000    -1.509000000
H     4.802000000     0.584000000    -0.556000000
O     4.088000000     2.632000000     0.917000000
H     2.284000000     2.179000000    -0.014000000
C     1.225000000     4.430000000     1.507000000
C     2.386000000     4.294000000     2.533000000
H     2.077000000     4.882000000     3.400000000
H     3.259000000     4.852000000     2.187000000
C     2.683000000     2.825000000     2.845000000
C     3.616000000     2.091000000     2.049000000
C     3.897000000     0.803000000     2.373000000
H     4.732000000     0.298000000     1.894000000
C     3.226000000     0.208000000     3.399000000
O     3.421000000    -1.159000000     3.667000000
C     2.394000000    -2.030000000     3.236000000
H     1.835000000    -1.451000000     2.486000000
C     2.937000000    -3.203000000     2.474000000
C     2.294000000    -4.432000000     2.608000000
H     1.557000000    -4.597000000     3.390000000
C     3.941000000    -3.050000000     1.524000000
H     4.437000000    -2.101000000     1.333000000
C     4.334000000    -4.204000000     0.802000000
O     5.415000000    -4.096000000    -0.061000000
C     3.574000000    -5.421000000     0.905000000
H     3.783000000    -6.200000000     0.178000000
C     2.656000000    -5.583000000     1.907000000
O     2.025000000    -6.855000000     2.029000000
C     0.625000000    -6.863000000     1.927000000
C     0.002000000    -6.261000000     0.814000000
H     0.522000000    -5.978000000    -0.098000000
C    -0.151000000    -7.334000000     3.029000000
H     0.363000000    -7.786000000     3.874000000
C    -1.570000000    -7.355000000     2.926000000
H    -2.079000000    -7.840000000     3.755000000
C    -2.240000000    -6.902000000     1.813000000
H    -3.316000000    -6.906000000     1.656000000
C    -1.417000000    -6.364000000     0.804000000
O    -1.971000000    -5.813000000    -0.327000000
C    -2.982000000    -4.858000000    -0.281000000
C    -3.744000000    -4.545000000    -1.415000000
H    -3.654000000    -5.130000000    -2.327000000
C    -4.454000000    -3.409000000    -1.477000000
O    -5.324000000    -3.307000000    -2.551000000
C    -5.911000000    -2.149000000    -2.928000000
C    -5.156000000    -1.271000000    -3.735000000
H    -4.139000000    -1.564000000    -3.985000000
C    -7.187000000    -1.836000000    -2.573000000
H    -7.723000000    -2.468000000    -1.870000000
C    -7.787000000    -0.713000000    -3.119000000
H    -8.831000000    -0.526000000    -2.883000000
C    -7.015000000     0.084000000    -3.970000000
H    -7.463000000     0.964000000    -4.423000000
C    -5.705000000    -0.131000000    -4.257000000
O    -4.904000000     0.681000000    -5.091000000
C    -3.923000000     1.510000000    -4.570000000
C    -3.112000000     2.144000000    -5.486000000
H    -3.256000000     1.952000000    -6.546000000
C    -2.112000000     2.965000000    -5.086000000
O    -1.303000000     3.594000000    -5.986000000
C     0.018000000     4.035000000    -5.710000000
C     1.054000000     3.100000000    -5.584000000
H     0.853000000     2.051000000    -5.786000000
C     0.292000000     5.360000000    -5.767000000
H    -0.601000000     5.928000000    -6.015000000
C     1.558000000     5.839000000    -5.591000000
H     1.773000000     6.898000000    -5.703000000
C     2.587000000     4.911000000    -5.511000000
H     3.606000000     5.270000000    -5.393000000
C     2.348000000     3.586000000    -5.476000000
O     3.433000000     2.743000000    -5.252000000
C     3.794000000     2.210000000    -4.006000000
C     4.832000000     1.238000000    -3.924000000
H     5.220000000     0.819000000    -4.849000000
C     5.294000000     0.740000000    -2.752000000
O     6.308000000    -0.142000000    -2.693000000
C     6.578000000    -0.879000000    -1.613000000
C     7.603000000    -0.539000000    -0.759000000
H     8.211000000     0.328000000    -1.004000000
C     7.877000000    -1.314000000     0.361000000
H     8.682000000    -1.023000000     1.031000000
C     7.135000000    -2.430000000     0.572000000
H     7.256000000    -2.941000000     1.524000000
C     6.180000000    -2.859000000    -0.305000000
C     5.933000000    -2.094000000    -1.445000000
H     5.152000000    -2.263000000    -2.181000000
C     1.343000000    -0.573000000    -2.087000000
H     1.809000000    -0.242000000    -3.011000000
C     0.699000000     0.383000000    -1.309000000
H     0.722000000     1.458000000    -1.465000000
C     0.098000000    -0.071000000    -0.160000000
H    -0.258000000     0.651000000     0.496000000
C     0.029000000    -1.446000000     0.195000000
H    -0.487000000    -1.757000000     1.100000000
C     0.625000000    -2.348000000    -0.613000000
H     0.634000000    -3.395000000    -0.321000000
C     1.442000000    -1.932000000    -1.694000000
C     2.158000000    -2.977000000    -2.602000000
O     1.955000000    -4.126000000    -2.512000000
O     2.807000000    -2.550000000    -3.538000000
O     5.881000000    -4.541000000    -6.116000000
H     5.139000000    -4.595000000    -5.514000000
H     6.645000000    -4.448000000    -5.547000000
O    -1.702000000    -1.411000000    -2.660000000
H    -1.493000000    -2.328000000    -2.482000000
H    -1.397000000    -0.941000000    -1.884000000
O    -0.771000000    -0.250000000    -5.237000000
H    -1.198000000    -0.594000000    -4.453000000
H     0.032000000    -0.766000000    -5.318000000
O    -2.858000000    -4.294000000    -4.789000000
H    -2.304000000    -4.106000000    -4.032000000
H    -2.385000000    -3.917000000    -5.531000000
O     3.537000000    -5.074000000    -4.774000000
H     2.853000000    -4.869000000    -5.412000000
H     3.288000000    -4.584000000    -3.990000000
O     3.016000000    -3.660000000    -7.299000000
H     3.522000000    -4.408000000    -7.616000000
H     3.109000000    -3.000000000    -7.985000000
O     0.871000000    -6.606000000    -3.197000000
H     1.296000000    -5.749000000    -3.196000000
H     1.373000000    -7.124000000    -2.568000000
O    -0.911000000    -4.224000000    -2.628000000
H     0.030000000    -4.058000000    -2.571000000
H    -1.064000000    -4.950000000    -2.023000000
O    -1.176000000    -3.050000000    -6.788000000
H    -1.774000000    -2.645000000    -7.416000000
H    -0.559000000    -2.354000000    -6.562000000
O     1.220000000     0.075000000    -7.696000000
H     0.910000000    -0.588000000    -8.313000000
H     1.487000000    -0.423000000    -6.924000000
O     2.551000000    -8.400000000    -1.916000000
H     2.179000000    -8.752000000    -1.107000000
H     3.467000000    -8.679000000    -1.899000000
O    -1.411000000    -5.686000000    -7.588000000
H    -1.320000000    -4.821000000    -7.187000000
H    -1.029000000    -6.287000000    -6.949000000
O    -0.260000000    -7.194000000    -5.616000000
H    -0.716000000    -7.979000000    -5.314000000
H     0.143000000    -6.832000000    -4.826000000
O     4.670000000    -1.733000000    -5.406000000
H     4.185000000    -1.693000000    -4.582000000
H     4.808000000    -2.668000000    -5.558000000
O     6.598000000    -0.250000000    -6.665000000
H     5.934000000    -0.744000000    -6.183000000
H     7.368000000    -0.266000000    -6.097000000
O     8.160000000    -5.203000000    -1.304000000
H     7.840000000    -4.307000000    -1.192000000
H     7.679000000    -5.712000000    -0.651000000
O     4.398000000    -8.093000000    -5.239000000
H     4.140000000    -7.175000000    -5.159000000
H     3.807000000    -8.453000000    -5.900000000
O     6.427000000    -6.979000000     0.069000000
H     6.276000000    -7.760000000     0.602000000
H     5.858000000    -7.096000000    -0.692000000
O     1.523000000    -1.993000000    -5.837000000
H     1.806000000    -2.281000000    -4.968000000
H     1.861000000    -2.662000000    -6.432000000
