215
-1455.57587
C    -4.922000000    -2.640000000    -0.981000000
H    -5.732000000    -1.952000000    -0.752000000
C    -3.841000000    -2.900000000    -0.124000000
C    -2.975000000    -3.977000000    -0.458000000
H    -2.151000000    -4.119000000     0.236000000
C    -3.597000000    -2.161000000     1.142000000
O    -4.661000000    -1.294000000     1.479000000
H    -2.669000000    -1.617000000     0.910000000
O    -3.315000000    -2.890000000     2.320000000
C    -2.320000000    -2.429000000     3.078000000
C    -1.065000000    -3.006000000     2.961000000
H    -0.878000000    -3.830000000     2.277000000
C     0.004000000    -2.495000000     3.682000000
O     1.265000000    -3.115000000     3.574000000
C    -0.171000000    -1.444000000     4.520000000
C     1.046000000    -0.956000000     5.349000000
H     0.771000000    -0.537000000     6.319000000
C     1.904000000     0.077000000     4.636000000
C     1.639000000     1.456000000     4.716000000
H     0.785000000     1.755000000     5.318000000
H     1.717000000    -1.757000000     5.667000000
C    -1.360000000    -0.712000000     4.636000000
H    -1.436000000     0.111000000     5.343000000
C    -2.448000000    -1.287000000     3.905000000
C    -3.769000000    -0.533000000     4.109000000
H    -3.707000000     0.005000000     5.058000000
H    -4.598000000    -1.243000000     4.148000000
C    -3.876000000     0.440000000     2.959000000
C    -3.438000000     1.775000000     3.193000000
H    -2.897000000     2.020000000     4.103000000
C    -4.349000000     0.058000000     1.716000000
C    -4.437000000     1.012000000     0.679000000
H    -4.776000000     0.610000000    -0.273000000
C    -4.008000000     2.296000000     0.880000000
O    -3.915000000     3.071000000    -0.246000000
C    -2.579000000     3.116000000    -0.830000000
C    -2.642000000     2.887000000    -2.377000000
C    -1.614000000     3.313000000    -3.194000000
H    -0.736000000     3.769000000    -2.744000000
C    -3.793000000     2.295000000    -2.921000000
H    -4.604000000     1.958000000    -2.280000000
O    -1.991000000     4.373000000    -0.513000000
H    -2.001000000     2.312000000    -0.351000000
C    -3.507000000     2.695000000     2.102000000
C    -2.942000000     4.099000000     2.247000000
H    -3.141000000     4.296000000     3.303000000
H    -3.572000000     4.810000000     1.709000000
C    -1.467000000     4.110000000     1.853000000
C    -0.502000000     3.951000000     2.854000000
H    -0.803000000     3.839000000     3.892000000
C    -1.097000000     4.407000000     0.550000000
C     0.271000000     4.518000000     0.222000000
H     0.585000000     4.833000000    -0.769000000
C     1.221000000     4.190000000     1.207000000
O     2.506000000     4.106000000     0.692000000
C     3.208000000     2.812000000     0.747000000
C     4.220000000     2.735000000    -0.446000000
C     3.704000000     3.108000000    -1.694000000
H     2.709000000     3.540000000    -1.764000000
C     5.483000000     2.046000000    -0.392000000
H     5.966000000     1.708000000     0.522000000
O     3.925000000     2.630000000     2.082000000
H     2.421000000     2.067000000     0.562000000
C     0.828000000     3.989000000     2.575000000
C     1.861000000     3.766000000     3.710000000
H     1.351000000     4.102000000     4.615000000
H     2.730000000     4.424000000     3.635000000
C     2.251000000     2.348000000     3.813000000
C     3.327000000     1.909000000     3.060000000
C     3.613000000     0.578000000     3.006000000
H     4.439000000     0.234000000     2.389000000
C     2.906000000    -0.376000000     3.751000000
O     3.178000000    -1.704000000     3.479000000
C     2.233000000    -2.465000000     2.695000000
H     1.676000000    -1.685000000     2.156000000
C     2.894000000    -3.397000000     1.710000000
C     2.316000000    -4.610000000     1.390000000
H     1.396000000    -5.007000000     1.810000000
C     3.935000000    -2.951000000     0.949000000
H     4.328000000    -1.938000000     0.970000000
C     4.519000000    -3.754000000    -0.020000000
O     5.473000000    -3.193000000    -0.847000000
C     4.041000000    -5.041000000    -0.290000000
H     4.442000000    -5.671000000    -1.079000000
C     2.907000000    -5.384000000     0.396000000
O     2.290000000    -6.518000000    -0.043000000
C     0.885000000    -6.720000000    -0.116000000
C     0.139000000    -5.960000000    -1.040000000
H     0.562000000    -5.140000000    -1.616000000
C     0.307000000    -7.583000000     0.725000000
H     0.994000000    -8.067000000     1.415000000
C    -1.095000000    -7.696000000     0.656000000
H    -1.508000000    -8.445000000     1.326000000
C    -1.859000000    -7.000000000    -0.232000000
H    -2.940000000    -6.971000000    -0.347000000
C    -1.224000000    -6.177000000    -1.171000000
O    -2.107000000    -5.506000000    -2.067000000
C    -3.098000000    -4.611000000    -1.680000000
C    -4.084000000    -4.275000000    -2.587000000
H    -4.132000000    -4.853000000    -3.506000000
C    -4.905000000    -3.226000000    -2.210000000
O    -5.958000000    -2.837000000    -3.104000000
C    -6.326000000    -1.522000000    -3.305000000
C    -5.338000000    -0.641000000    -3.794000000
H    -4.298000000    -0.958000000    -3.806000000
C    -7.598000000    -1.127000000    -3.052000000
H    -8.304000000    -1.834000000    -2.624000000
C    -8.015000000     0.182000000    -3.392000000
H    -9.046000000     0.498000000    -3.255000000
C    -7.129000000     0.978000000    -4.054000000
H    -7.356000000     2.007000000    -4.320000000
C    -5.749000000     0.662000000    -4.172000000
O    -4.935000000     1.460000000    -4.900000000
C    -3.901000000     2.154000000    -4.317000000
C    -2.822000000     2.561000000    -5.164000000
H    -2.884000000     2.440000000    -6.242000000
C    -1.731000000     3.155000000    -4.560000000
O    -0.743000000     3.693000000    -5.385000000
C     0.511000000     4.189000000    -5.046000000
C     1.582000000     3.427000000    -4.617000000
H     1.514000000     2.344000000    -4.559000000
C     0.533000000     5.595000000    -5.038000000
H    -0.262000000     6.267000000    -5.353000000
C     1.767000000     6.191000000    -4.557000000
H     1.950000000     7.262000000    -4.546000000
C     2.862000000     5.380000000    -4.279000000
H     3.794000000     5.909000000    -4.094000000
C     2.797000000     3.994000000    -4.374000000
O     3.932000000     3.267000000    -4.096000000
C     4.413000000     2.847000000    -2.855000000
C     5.684000000     2.278000000    -2.792000000
H     6.291000000     2.249000000    -3.693000000
C     6.202000000     1.877000000    -1.558000000
O     7.327000000     1.099000000    -1.524000000
C     7.396000000    -0.078000000    -0.812000000
C     8.247000000    -0.232000000     0.261000000
H     8.976000000     0.533000000     0.516000000
C     8.257000000    -1.438000000     0.938000000
H     9.047000000    -1.580000000     1.671000000
C     7.312000000    -2.461000000     0.548000000
H     7.382000000    -3.378000000     1.128000000
C     6.408000000    -2.244000000    -0.479000000
C     6.491000000    -1.084000000    -1.159000000
H     5.748000000    -0.844000000    -1.915000000
C     1.659000000     0.166000000    -1.773000000
H     2.226000000     0.927000000    -2.301000000
C     0.664000000     0.623000000    -0.887000000
H     0.549000000     1.697000000    -0.768000000
C    -0.026000000    -0.308000000    -0.128000000
H    -0.767000000    -0.053000000     0.632000000
C     0.184000000    -1.704000000    -0.363000000
H    -0.300000000    -2.397000000     0.321000000
C     1.174000000    -2.112000000    -1.265000000
H     1.294000000    -3.176000000    -1.455000000
C     1.881000000    -1.166000000    -1.994000000
C     2.954000000    -1.687000000    -2.975000000
O     2.865000000    -2.768000000    -3.513000000
O     3.651000000    -0.840000000    -3.557000000
O    -1.349000000    -0.527000000    -3.413000000
H    -0.880000000     0.256000000    -3.702000000
H    -0.901000000    -0.792000000    -2.610000000
O     2.866000000    -3.752000000    -8.356000000
H     2.106000000    -3.677000000    -7.778000000
H     2.497000000    -3.978000000    -9.209000000
O     4.458000000     0.650000000    -5.428000000
H     4.546000000     0.048000000    -4.689000000
H     4.031000000     1.422000000    -5.058000000
O     5.821000000    -3.006000000    -4.733000000
H     5.086000000    -2.399000000    -4.653000000
H     5.447000000    -3.864000000    -4.532000000
O     0.474000000     1.057000000    -7.664000000
H     0.867000000     0.459000000    -7.029000000
H     1.135000000     1.736000000    -7.795000000
O     2.752000000    -5.281000000    -3.492000000
H     2.875000000    -4.333000000    -3.436000000
H     3.583000000    -5.648000000    -3.191000000
O    -2.157000000    -1.806000000    -5.787000000
H    -2.091000000    -2.753000000    -5.662000000
H    -1.765000000    -1.432000000    -4.998000000
O    -1.141000000    -4.471000000    -5.618000000
H    -0.734000000    -5.141000000    -5.068000000
H    -1.826000000    -4.938000000    -6.097000000
O     1.630000000    -0.424000000    -5.833000000
H     1.226000000    -1.285000000    -5.942000000
H     2.438000000    -0.599000000    -5.350000000
O     4.858000000    -5.807000000    -7.732000000
H     5.058000000    -5.713000000    -6.800000000
H     4.220000000    -5.117000000    -7.911000000
O     8.136000000    -1.615000000    -4.017000000
H     8.545000000    -2.399000000    -3.650000000
H     7.226000000    -1.868000000    -4.170000000
O     5.206000000     3.107000000    -6.748000000
H     5.964000000     3.674000000    -6.602000000
H     5.562000000     2.219000000    -6.713000000
O     4.305000000    -0.846000000    -7.680000000
H     4.024000000    -0.008000000    -7.313000000
H     3.656000000    -1.475000000    -7.363000000
O     7.546000000    -5.025000000    -2.650000000
H     7.219000000    -4.308000000    -2.106000000
H     8.312000000    -4.659000000    -3.092000000
O     5.028000000    -7.973000000    -3.660000000
H     5.136000000    -8.746000000    -4.214000000
H     5.473000000    -7.273000000    -4.137000000
O     7.522000000    -4.028000000    -7.022000000
H     7.177000000    -3.612000000    -7.812000000
H     6.930000000    -3.747000000    -6.325000000
O     0.371000000    -6.479000000    -4.382000000
H     1.172000000    -6.175000000    -3.954000000
H     0.679000000    -6.958000000    -5.152000000
O     1.312000000    -3.167000000    -6.046000000
H     1.746000000    -3.156000000    -5.192000000
H     0.557000000    -3.742000000    -5.923000000
O     6.559000000    -5.969000000    -4.987000000
H     7.089000000    -6.634000000    -5.426000000
H     7.088000000    -5.698000000    -4.236000000
