215
-1448.20146
C    -4.509000000    -1.975000000    -1.467000000
H    -4.851000000    -0.951000000    -1.342000000
C    -3.870000000    -2.455000000    -0.291000000
C    -3.330000000    -3.737000000    -0.264000000
H    -2.765000000    -4.103000000     0.588000000
C    -3.633000000    -1.546000000     0.881000000
O    -4.728000000    -0.721000000     1.244000000
H    -2.721000000    -0.940000000     0.780000000
O    -3.534000000    -2.255000000     2.106000000
C    -2.611000000    -2.044000000     2.986000000
C    -1.464000000    -2.929000000     3.075000000
H    -1.529000000    -3.782000000     2.404000000
C    -0.423000000    -2.651000000     3.893000000
O     0.724000000    -3.351000000     3.579000000
C    -0.432000000    -1.592000000     4.781000000
C     0.868000000    -1.068000000     5.488000000
H     0.505000000    -0.432000000     6.298000000
C     1.658000000    -0.165000000     4.502000000
C     1.613000000     1.234000000     4.661000000
H     0.974000000     1.648000000     5.437000000
H     1.492000000    -1.839000000     5.944000000
C    -1.623000000    -0.813000000     4.822000000
H    -1.663000000     0.082000000     5.438000000
C    -2.729000000    -1.037000000     3.971000000
C    -3.955000000    -0.082000000     3.976000000
H    -3.932000000     0.461000000     4.923000000
H    -4.853000000    -0.696000000     4.063000000
C    -3.969000000     0.973000000     2.908000000
C    -3.397000000     2.260000000     3.156000000
H    -3.036000000     2.493000000     4.155000000
C    -4.377000000     0.668000000     1.589000000
C    -4.303000000     1.642000000     0.604000000
H    -4.563000000     1.297000000    -0.393000000
C    -3.749000000     2.893000000     0.853000000
O    -3.567000000     3.707000000    -0.212000000
C    -2.245000000     3.657000000    -0.790000000
C    -2.233000000     3.337000000    -2.192000000
C    -0.999000000     3.284000000    -2.895000000
H    -0.058000000     3.388000000    -2.362000000
C    -3.413000000     3.155000000    -2.890000000
H    -4.441000000     3.125000000    -2.537000000
O    -1.470000000     4.802000000    -0.412000000
H    -1.709000000     2.834000000    -0.295000000
C    -3.150000000     3.135000000     2.109000000
C    -2.496000000     4.429000000     2.453000000
H    -2.612000000     4.630000000     3.520000000
H    -2.988000000     5.273000000     1.965000000
C    -1.034000000     4.500000000     2.001000000
C    -0.092000000     4.256000000     3.011000000
H    -0.434000000     4.063000000     4.024000000
C    -0.639000000     4.750000000     0.718000000
C     0.719000000     4.765000000     0.369000000
H     0.981000000     4.936000000    -0.672000000
C     1.657000000     4.421000000     1.362000000
O     2.897000000     4.047000000     1.002000000
C     3.362000000     2.658000000     0.929000000
C     4.294000000     2.478000000    -0.261000000
C     4.067000000     3.244000000    -1.416000000
H     3.351000000     4.061000000    -1.424000000
C     5.343000000     1.557000000    -0.321000000
H     5.494000000     0.865000000     0.504000000
O     4.004000000     2.124000000     2.072000000
H     2.450000000     2.070000000     0.747000000
C     1.286000000     4.119000000     2.662000000
C     2.179000000     3.574000000     3.769000000
H     1.840000000     3.860000000     4.767000000
H     3.165000000     4.020000000     3.616000000
C     2.330000000     2.083000000     3.782000000
C     3.246000000     1.438000000     2.936000000
C     3.377000000     0.041000000     2.778000000
H     4.086000000    -0.393000000     2.077000000
C     2.530000000    -0.702000000     3.533000000
O     2.724000000    -2.021000000     3.418000000
C     1.656000000    -2.692000000     2.739000000
H     1.114000000    -1.856000000     2.272000000
C     2.189000000    -3.564000000     1.699000000
C     1.594000000    -4.797000000     1.411000000
H     0.712000000    -5.141000000     1.946000000
C     3.265000000    -3.146000000     0.893000000
H     3.681000000    -2.157000000     1.064000000
C     3.728000000    -3.957000000    -0.170000000
O     4.597000000    -3.405000000    -1.131000000
C     3.142000000    -5.155000000    -0.416000000
H     3.533000000    -5.784000000    -1.212000000
C     2.123000000    -5.632000000     0.458000000
O     1.523000000    -6.810000000     0.195000000
C     0.122000000    -6.979000000     0.127000000
C    -0.744000000    -6.255000000    -0.672000000
H    -0.227000000    -5.587000000    -1.357000000
C    -0.411000000    -7.952000000     0.946000000
H     0.305000000    -8.562000000     1.492000000
C    -1.772000000    -8.102000000     1.127000000
H    -2.164000000    -8.974000000     1.644000000
C    -2.647000000    -7.257000000     0.359000000
H    -3.722000000    -7.390000000     0.450000000
C    -2.103000000    -6.404000000    -0.604000000
O    -2.957000000    -5.780000000    -1.508000000
C    -3.440000000    -4.505000000    -1.443000000
C    -4.125000000    -4.017000000    -2.588000000
H    -4.140000000    -4.670000000    -3.457000000
C    -4.687000000    -2.752000000    -2.637000000
O    -5.190000000    -2.299000000    -3.779000000
C    -5.651000000    -1.009000000    -3.857000000
C    -4.963000000     0.017000000    -4.476000000
H    -3.982000000    -0.281000000    -4.837000000
C    -6.959000000    -0.715000000    -3.396000000
H    -7.586000000    -1.480000000    -2.945000000
C    -7.386000000     0.612000000    -3.422000000
H    -8.384000000     0.904000000    -3.105000000
C    -6.656000000     1.611000000    -3.907000000
H    -6.969000000     2.648000000    -3.827000000
C    -5.348000000     1.278000000    -4.381000000
O    -4.543000000     2.338000000    -4.850000000
C    -3.375000000     2.751000000    -4.233000000
C    -2.195000000     2.627000000    -4.901000000
H    -2.082000000     2.261000000    -5.918000000
C    -1.074000000     2.967000000    -4.250000000
O     0.154000000     2.723000000    -4.859000000
C     1.229000000     3.572000000    -4.712000000
C     2.445000000     3.282000000    -4.117000000
H     2.698000000     2.296000000    -3.735000000
C     1.095000000     4.768000000    -5.415000000
H     0.201000000     4.879000000    -6.023000000
C     2.032000000     5.795000000    -5.291000000
H     1.867000000     6.714000000    -5.848000000
C     3.195000000     5.586000000    -4.569000000
H     3.978000000     6.333000000    -4.463000000
C     3.430000000     4.290000000    -4.067000000
O     4.656000000     3.894000000    -3.615000000
C     4.893000000     3.125000000    -2.522000000
C     6.096000000     2.340000000    -2.481000000
H     6.692000000     2.185000000    -3.376000000
C     6.221000000     1.514000000    -1.411000000
O     7.218000000     0.548000000    -1.307000000
C     7.019000000    -0.801000000    -0.853000000
C     8.143000000    -1.502000000    -0.391000000
H     9.074000000    -1.004000000    -0.134000000
C     7.980000000    -2.805000000     0.052000000
H     8.750000000    -3.433000000     0.493000000
C     6.744000000    -3.504000000    -0.126000000
H     6.734000000    -4.576000000     0.055000000
C     5.745000000    -2.777000000    -0.776000000
C     5.802000000    -1.455000000    -1.103000000
H     4.978000000    -1.043000000    -1.681000000
C     1.665000000     0.266000000    -1.287000000
H     2.184000000     0.999000000    -1.899000000
C     0.784000000     0.620000000    -0.206000000
H     0.676000000     1.677000000     0.021000000
C     0.101000000    -0.335000000     0.493000000
H    -0.614000000    -0.088000000     1.288000000
C     0.104000000    -1.671000000     0.050000000
H    -0.513000000    -2.452000000     0.488000000
C     0.902000000    -1.998000000    -0.999000000
H     1.002000000    -3.049000000    -1.261000000
C     1.615000000    -1.063000000    -1.738000000
C     2.325000000    -1.500000000    -3.024000000
O     2.176000000    -2.584000000    -3.589000000
O     2.950000000    -0.665000000    -3.637000000
O    -2.176000000     0.363000000    -1.634000000
H    -1.284000000     0.424000000    -1.292000000
H    -2.175000000    -0.436000000    -2.162000000
O     2.742000000    -4.595000000    -7.853000000
H     2.275000000    -4.166000000    -7.135000000
H     2.765000000    -3.938000000    -8.549000000
O    -0.324000000     0.595000000    -7.653000000
H     0.041000000     1.402000000    -7.291000000
H     0.301000000    -0.085000000    -7.402000000
O     5.106000000    -0.297000000    -5.021000000
H     4.638000000    -1.024000000    -4.610000000
H     4.576000000     0.474000000    -4.819000000
O    -2.193000000    -2.311000000    -5.810000000
H    -2.044000000    -3.122000000    -5.325000000
H    -1.855000000    -1.623000000    -5.237000000
O     4.501000000    -3.654000000    -5.045000000
H     3.895000000    -3.308000000    -4.390000000
H     3.956000000    -3.808000000    -5.817000000
O     2.115000000     2.173000000    -7.878000000
H     2.345000000     1.515000000    -7.223000000
H     2.460000000     2.993000000    -7.526000000
O     2.417000000    -5.461000000    -3.335000000
H     2.335000000    -4.509000000    -3.273000000
H     1.760000000    -5.716000000    -3.983000000
O    -1.149000000    -0.417000000    -4.186000000
H    -0.253000000    -0.732000000    -4.304000000
H    -1.090000000     0.529000000    -4.321000000
O    -0.946000000    -4.728000000    -5.090000000
H    -0.348000000    -5.393000000    -4.748000000
H    -1.818000000    -5.097000000    -4.954000000
O     1.905000000    -0.477000000    -6.192000000
H     1.719000000    -1.376000000    -6.466000000
H     2.410000000    -0.573000000    -5.384000000
O     2.261000000    -8.274000000    -3.178000000
H     2.016000000    -8.754000000    -2.387000000
H     2.369000000    -7.369000000    -2.884000000
O     7.883000000    -0.092000000    -4.903000000
H     8.006000000     0.578000000    -4.230000000
H     6.940000000    -0.095000000    -5.069000000
O     5.404000000    -7.611000000    -1.837000000
H     5.237000000    -7.081000000    -2.616000000
H     6.013000000    -8.287000000    -2.133000000
O     6.345000000    -1.136000000    -7.558000000
H     5.746000000    -0.689000000    -6.960000000
H     6.688000000    -1.870000000    -7.048000000
O     5.802000000    -5.991000000    -4.351000000
H     5.222000000    -5.277000000    -4.617000000
H     6.648000000    -5.570000000    -4.201000000
O     7.996000000    -4.206000000    -3.526000000
H     8.595000000    -4.908000000    -3.269000000
H     7.852000000    -3.708000000    -2.721000000
O     0.584000000    -6.983000000    -4.964000000
H     1.080000000    -7.428000000    -4.277000000
H     0.589000000    -7.597000000    -5.698000000
O     1.453000000    -3.460000000    -6.025000000
H     1.490000000    -3.127000000    -5.128000000
H     0.666000000    -4.005000000    -6.046000000
