215
-1424.87532
C    -3.960000000    -0.504000000    -1.703000000
H    -3.813000000     0.573000000    -1.692000000
C    -4.016000000    -1.069000000    -0.454000000
C    -4.153000000    -2.426000000    -0.342000000
H    -4.227000000    -2.935000000     0.615000000
C    -3.832000000    -0.233000000     0.834000000
O    -4.588000000     0.965000000     0.815000000
H    -2.749000000    -0.085000000     0.954000000
O    -4.227000000    -0.837000000     2.047000000
C    -3.385000000    -0.774000000     3.145000000
C    -2.521000000    -1.802000000     3.380000000
H    -2.663000000    -2.792000000     2.955000000
C    -1.517000000    -1.727000000     4.277000000
O    -0.705000000    -2.831000000     4.285000000
C    -1.192000000    -0.485000000     4.965000000
C     0.120000000    -0.369000000     5.787000000
H    -0.134000000     0.426000000     6.492000000
C     1.267000000    -0.104000000     4.783000000
C     1.686000000     1.197000000     4.682000000
H     1.126000000     1.975000000     5.194000000
H     0.391000000    -1.292000000     6.304000000
C    -2.002000000     0.540000000     4.686000000
H    -1.636000000     1.492000000     5.061000000
C    -3.161000000     0.446000000     3.857000000
C    -4.022000000     1.694000000     3.516000000
H    -4.237000000     2.318000000     4.387000000
H    -5.031000000     1.413000000     3.207000000
C    -3.318000000     2.382000000     2.382000000
C    -2.332000000     3.353000000     2.572000000
H    -1.955000000     3.604000000     3.560000000
C    -3.802000000     2.071000000     1.095000000
C    -3.349000000     2.869000000     0.028000000
H    -3.681000000     2.594000000    -0.970000000
C    -2.360000000     3.820000000     0.258000000
O    -1.878000000     4.522000000    -0.890000000
C    -0.570000000     4.332000000    -1.455000000
C    -0.609000000     4.384000000    -2.993000000
C     0.536000000     4.736000000    -3.664000000
H     1.390000000     4.957000000    -3.029000000
C    -1.696000000     3.975000000    -3.714000000
H    -2.650000000     3.742000000    -3.249000000
O     0.382000000     5.214000000    -0.842000000
H    -0.228000000     3.315000000    -1.213000000
C    -1.881000000     4.161000000     1.510000000
C    -0.887000000     5.233000000     1.751000000
H    -0.912000000     5.652000000     2.759000000
H    -1.052000000     5.993000000     0.985000000
C     0.524000000     4.688000000     1.551000000
C     1.158000000     4.042000000     2.621000000
H     0.749000000     4.100000000     3.627000000
C     1.094000000     4.759000000     0.252000000
C     2.279000000     4.049000000    -0.047000000
H     2.675000000     4.055000000    -1.059000000
C     2.933000000     3.369000000     1.057000000
O     4.018000000     2.514000000     0.786000000
C     3.703000000     1.140000000     0.816000000
C     4.221000000     0.457000000    -0.513000000
C     3.867000000     0.964000000    -1.751000000
H     3.376000000     1.933000000    -1.739000000
C     4.850000000    -0.763000000    -0.417000000
H     5.080000000    -1.135000000     0.578000000
O     4.263000000     0.598000000     1.977000000
H     2.605000000     1.084000000     0.852000000
C     2.385000000     3.425000000     2.381000000
C     3.205000000     2.858000000     3.574000000
H     3.008000000     3.336000000     4.536000000
H     4.261000000     2.998000000     3.335000000
C     2.762000000     1.444000000     3.767000000
C     3.398000000     0.409000000     2.987000000
C     2.923000000    -0.914000000     3.119000000
H     3.427000000    -1.711000000     2.578000000
C     1.966000000    -1.210000000     4.180000000
O     1.555000000    -2.439000000     4.373000000
C     0.459000000    -2.808000000     3.442000000
H     0.235000000    -2.030000000     2.698000000
C     0.631000000    -4.153000000     2.756000000
C    -0.454000000    -4.913000000     2.251000000
H    -1.479000000    -4.658000000     2.506000000
C     1.892000000    -4.554000000     2.237000000
H     2.701000000    -3.861000000     2.452000000
C     2.117000000    -5.729000000     1.555000000
O     3.375000000    -6.102000000     1.075000000
C     1.036000000    -6.507000000     1.325000000
H     1.114000000    -7.485000000     0.857000000
C    -0.248000000    -6.100000000     1.649000000
O    -1.227000000    -6.992000000     1.320000000
C    -2.557000000    -6.663000000     0.949000000
C    -2.795000000    -5.791000000    -0.104000000
H    -1.920000000    -5.351000000    -0.574000000
C    -3.652000000    -7.326000000     1.551000000
H    -3.385000000    -8.080000000     2.287000000
C    -4.941000000    -6.993000000     1.155000000
H    -5.799000000    -7.423000000     1.665000000
C    -5.181000000    -6.111000000     0.122000000
H    -6.211000000    -5.880000000    -0.138000000
C    -4.096000000    -5.454000000    -0.452000000
O    -4.279000000    -4.575000000    -1.463000000
C    -4.138000000    -3.216000000    -1.503000000
C    -3.984000000    -2.650000000    -2.738000000
H    -3.965000000    -3.242000000    -3.650000000
C    -3.947000000    -1.304000000    -2.808000000
O    -3.742000000    -0.752000000    -4.069000000
C    -4.266000000     0.408000000    -4.495000000
C    -3.347000000     1.346000000    -4.912000000
H    -2.284000000     1.121000000    -4.923000000
C    -5.650000000     0.592000000    -4.510000000
H    -6.285000000    -0.260000000    -4.280000000
C    -6.098000000     1.818000000    -5.022000000
H    -7.160000000     2.019000000    -5.142000000
C    -5.168000000     2.767000000    -5.350000000
H    -5.450000000     3.776000000    -5.639000000
C    -3.810000000     2.581000000    -5.343000000
O    -2.920000000     3.550000000    -5.740000000
C    -1.754000000     3.911000000    -5.079000000
C    -0.574000000     4.191000000    -5.833000000
H    -0.570000000     4.199000000    -6.920000000
C     0.574000000     4.631000000    -5.043000000
O     1.864000000     4.686000000    -5.673000000
C     2.945000000     4.116000000    -5.197000000
C     2.821000000     2.772000000    -4.888000000
H     1.925000000     2.267000000    -5.240000000
C     4.121000000     4.794000000    -4.915000000
H     4.169000000     5.861000000    -5.117000000
C     5.259000000     4.120000000    -4.411000000
H     6.223000000     4.560000000    -4.168000000
C     5.165000000     2.752000000    -4.176000000
H     5.961000000     2.138000000    -3.764000000
C     3.916000000     2.110000000    -4.441000000
O     3.892000000     0.781000000    -4.158000000
C     4.113000000     0.274000000    -2.910000000
C     4.556000000    -1.090000000    -2.835000000
H     4.723000000    -1.730000000    -3.698000000
C     5.008000000    -1.536000000    -1.578000000
O     5.529000000    -2.786000000    -1.533000000
C     5.436000000    -3.544000000    -0.438000000
C     6.349000000    -3.371000000     0.647000000
H     7.052000000    -2.543000000     0.693000000
C     6.296000000    -4.029000000     1.856000000
H     6.969000000    -3.834000000     2.687000000
C     5.267000000    -4.934000000     2.001000000
H     5.065000000    -5.425000000     2.950000000
C     4.334000000    -5.166000000     0.979000000
C     4.400000000    -4.424000000    -0.209000000
H     3.615000000    -4.540000000    -0.952000000
C    -0.401000000    -0.155000000    -2.105000000
H    -0.956000000     0.395000000    -2.861000000
C    -0.708000000     0.235000000    -0.809000000
H    -1.416000000     1.037000000    -0.615000000
C    -0.101000000    -0.474000000     0.192000000
H    -0.234000000    -0.172000000     1.203000000
C     0.916000000    -1.452000000    -0.118000000
H     1.424000000    -1.966000000     0.694000000
C     1.212000000    -1.811000000    -1.380000000
H     1.864000000    -2.669000000    -1.527000000
C     0.480000000    -1.193000000    -2.421000000
C     0.765000000    -1.592000000    -3.854000000
O     1.286000000    -2.632000000    -4.142000000
O     0.323000000    -0.966000000    -4.749000000
O    -2.786000000    -0.790000000    -8.246000000
H    -3.721000000    -0.992000000    -8.193000000
H    -2.384000000    -1.342000000    -7.576000000
O     3.285000000    -2.880000000    -5.550000000
H     3.580000000    -3.765000000    -5.336000000
H     2.478000000    -2.767000000    -5.048000000
O    -0.505000000     0.402000000    -7.282000000
H    -1.338000000     0.014000000    -7.548000000
H    -0.218000000    -0.130000000    -6.540000000
O     4.910000000    -2.536000000    -7.815000000
H     5.048000000    -1.591000000    -7.867000000
H     4.382000000    -2.658000000    -7.026000000
O     1.514000000    -5.062000000    -3.075000000
H     1.250000000    -4.206000000    -3.413000000
H     2.420000000    -5.165000000    -3.368000000
O    -2.266000000     2.531000000    -8.394000000
H    -3.063000000     2.003000000    -8.338000000
H    -1.852000000     2.432000000    -7.537000000
O     7.128000000    -3.144000000    -5.831000000
H     6.296000000    -2.985000000    -6.277000000
H     7.695000000    -3.515000000    -6.508000000
O     2.439000000    -0.440000000    -6.467000000
H     1.686000000    -0.532000000    -5.884000000
H     3.064000000    -1.095000000    -6.157000000
O    -1.149000000    -5.593000000    -3.232000000
H    -0.336000000    -5.173000000    -2.952000000
H    -0.919000000    -6.043000000    -4.045000000
O     1.330000000    -4.286000000    -9.166000000
H     1.087000000    -4.368000000    -8.244000000
H     2.278000000    -4.155000000    -9.153000000
O    -2.843000000    -4.834000000    -6.602000000
H    -2.366000000    -5.571000000    -6.222000000
H    -2.424000000    -4.059000000    -6.228000000
O    -0.750000000    -6.899000000    -5.622000000
H    -0.053000000    -7.556000000    -5.641000000
H    -1.454000000    -7.282000000    -6.145000000
O     5.551000000    -0.128000000    -6.637000000
H     4.726000000     0.215000000    -6.294000000
H     6.162000000     0.606000000    -6.573000000
O     1.404000000     2.467000000    -8.874000000
H     2.257000000     2.062000000    -8.718000000
H     0.813000000     2.023000000    -8.265000000
O     4.475000000    -5.439000000    -3.468000000
H     4.801000000    -6.312000000    -3.250000000
H     5.259000000    -4.890000000    -3.493000000
O     0.591000000    -8.544000000    -2.234000000
H     0.009000000    -9.254000000    -2.502000000
H     0.157000000    -7.749000000    -2.543000000
O     1.889000000    -0.816000000    -9.059000000
H     2.141000000    -0.711000000    -8.142000000
H     1.030000000    -0.399000000    -9.121000000
O     0.386000000    -4.422000000    -6.311000000
H     0.365000000    -3.755000000    -5.625000000
H     0.131000000    -5.231000000    -5.867000000
O    -2.230000000    -2.129000000    -5.673000000
H    -1.503000000    -2.044000000    -5.056000000
H    -2.957000000    -1.670000000    -5.252000000
