215
-1477.89536
C     1.603000000     2.878000000    -3.265000000
H     1.692000000     1.919000000    -3.767000000
C     2.270000000     2.988000000    -2.014000000
C     2.045000000     4.103000000    -1.211000000
H     2.415000000     4.133000000    -0.189000000
C     3.141000000     1.854000000    -1.520000000
O     3.795000000     1.197000000    -2.658000000
H     2.538000000     1.158000000    -0.918000000
O     4.181000000     2.342000000    -0.627000000
C     4.308000000     1.561000000     0.544000000
C     3.606000000     1.955000000     1.665000000
H     3.205000000     2.963000000     1.739000000
C     3.528000000     1.164000000     2.827000000
O     2.850000000     1.685000000     3.889000000
C     4.006000000    -0.187000000     2.825000000
C     3.784000000    -1.160000000     4.026000000
H     4.434000000    -2.016000000     3.831000000
C     2.384000000    -1.696000000     3.922000000
C     2.233000000    -2.961000000     3.359000000
H     3.073000000    -3.550000000     3.001000000
H     4.054000000    -0.702000000     4.980000000
C     4.507000000    -0.689000000     1.622000000
H     4.850000000    -1.717000000     1.544000000
C     4.763000000     0.245000000     0.565000000
C     5.386000000    -0.288000000    -0.672000000
H     6.140000000    -1.057000000    -0.490000000
H     6.008000000     0.508000000    -1.086000000
C     4.514000000    -0.966000000    -1.716000000
C     4.236000000    -2.338000000    -1.620000000
H     4.804000000    -2.882000000    -0.869000000
C     3.717000000    -0.168000000    -2.606000000
C     2.789000000    -0.871000000    -3.394000000
H     2.174000000    -0.280000000    -4.068000000
C     2.557000000    -2.264000000    -3.275000000
O     1.606000000    -2.745000000    -3.981000000
C     0.314000000    -2.763000000    -3.382000000
C    -0.711000000    -2.213000000    -4.322000000
C    -2.029000000    -2.698000000    -4.208000000
H    -2.371000000    -3.210000000    -3.312000000
C    -0.320000000    -1.465000000    -5.403000000
H     0.706000000    -1.139000000    -5.549000000
O     0.002000000    -4.043000000    -2.943000000
H     0.313000000    -2.089000000    -2.513000000
C     3.267000000    -2.972000000    -2.352000000
C     2.830000000    -4.386000000    -1.983000000
H     3.612000000    -4.883000000    -1.405000000
H     2.744000000    -4.955000000    -2.911000000
C     1.523000000    -4.344000000    -1.139000000
C     1.655000000    -4.492000000     0.239000000
H     2.656000000    -4.462000000     0.662000000
C     0.242000000    -4.291000000    -1.654000000
C    -0.952000000    -4.444000000    -0.871000000
H    -1.892000000    -4.262000000    -1.385000000
C    -0.767000000    -4.435000000     0.513000000
O    -1.895000000    -4.298000000     1.369000000
C    -1.893000000    -3.033000000     2.047000000
C    -3.211000000    -2.436000000     1.897000000
C    -3.830000000    -2.537000000     0.690000000
H    -3.536000000    -3.218000000    -0.104000000
C    -3.751000000    -1.656000000     2.890000000
H    -3.157000000    -1.578000000     3.797000000
O    -1.477000000    -3.300000000     3.380000000
H    -1.141000000    -2.391000000     1.565000000
C     0.499000000    -4.640000000     1.059000000
C     0.705000000    -4.807000000     2.591000000
H     1.574000000    -5.454000000     2.724000000
H    -0.234000000    -5.237000000     2.946000000
C     0.941000000    -3.504000000     3.278000000
C    -0.235000000    -2.814000000     3.782000000
C    -0.047000000    -1.585000000     4.315000000
H    -0.954000000    -1.082000000     4.643000000
C     1.215000000    -0.980000000     4.422000000
O     1.327000000     0.262000000     5.008000000
C     1.489000000     1.292000000     4.017000000
H     1.175000000     0.859000000     3.056000000
C     0.525000000     2.436000000     4.348000000
C     0.858000000     3.699000000     3.891000000
H     1.737000000     3.768000000     3.255000000
C    -0.692000000     2.241000000     5.060000000
H    -0.906000000     1.241000000     5.429000000
C    -1.590000000     3.311000000     5.233000000
O    -2.757000000     3.256000000     5.945000000
C    -1.181000000     4.574000000     4.757000000
H    -1.881000000     5.349000000     5.056000000
C    -0.008000000     4.799000000     3.999000000
O     0.347000000     6.079000000     3.718000000
C     1.033000000     6.542000000     2.617000000
C     0.729000000     6.113000000     1.345000000
H    -0.093000000     5.413000000     1.227000000
C     2.043000000     7.503000000     2.865000000
H     2.202000000     7.871000000     3.876000000
C     2.784000000     7.971000000     1.823000000
H     3.596000000     8.665000000     2.022000000
C     2.514000000     7.488000000     0.510000000
H     2.977000000     7.936000000    -0.365000000
C     1.435000000     6.606000000     0.326000000
O     0.977000000     6.316000000    -0.985000000
C     1.129000000     5.109000000    -1.613000000
C     0.496000000     4.953000000    -2.866000000
H    -0.150000000     5.755000000    -3.213000000
C     0.679000000     3.806000000    -3.595000000
O    -0.104000000     3.742000000    -4.748000000
C     0.231000000     2.829000000    -5.754000000
C    -0.555000000     1.684000000    -6.012000000
H    -1.468000000     1.497000000    -5.452000000
C     1.341000000     3.125000000    -6.564000000
H     1.926000000     4.020000000    -6.368000000
C     1.637000000     2.395000000    -7.723000000
H     2.344000000     2.750000000    -8.469000000
C     0.874000000     1.279000000    -7.951000000
H     1.006000000     0.592000000    -8.783000000
C    -0.161000000     0.927000000    -7.080000000
O    -0.813000000    -0.295000000    -7.405000000
C    -1.223000000    -1.194000000    -6.430000000
C    -2.522000000    -1.712000000    -6.400000000
H    -3.294000000    -1.414000000    -7.105000000
C    -2.914000000    -2.453000000    -5.241000000
O    -4.215000000    -2.892000000    -5.215000000
C    -4.754000000    -3.311000000    -4.000000000
C    -5.081000000    -2.350000000    -3.007000000
H    -5.002000000    -1.279000000    -3.173000000
C    -4.816000000    -4.673000000    -3.792000000
H    -4.462000000    -5.261000000    -4.635000000
C    -5.194000000    -5.200000000    -2.550000000
H    -5.240000000    -6.284000000    -2.480000000
C    -5.505000000    -4.262000000    -1.537000000
H    -5.807000000    -4.655000000    -0.570000000
C    -5.377000000    -2.860000000    -1.711000000
O    -5.716000000    -1.964000000    -0.726000000
C    -5.025000000    -1.796000000     0.472000000
C    -5.544000000    -1.023000000     1.486000000
H    -6.459000000    -0.460000000     1.319000000
C    -4.896000000    -0.915000000     2.694000000
O    -5.396000000     0.016000000     3.583000000
C    -4.740000000     0.461000000     4.737000000
C    -4.929000000    -0.232000000     5.887000000
H    -5.407000000    -1.204000000     5.797000000
C    -4.337000000     0.239000000     7.054000000
H    -4.472000000    -0.273000000     8.004000000
C    -3.669000000     1.396000000     7.059000000
H    -3.270000000     1.747000000     8.008000000
C    -3.519000000     2.132000000     5.865000000
C    -4.036000000     1.675000000     4.659000000
H    -3.873000000     2.242000000     3.746000000
C    -2.930000000     0.547000000    -0.392000000
H    -3.865000000     0.296000000    -0.886000000
C    -1.737000000    -0.064000000    -0.773000000
H    -1.740000000    -0.924000000    -1.438000000
C    -0.496000000     0.318000000    -0.237000000
H     0.420000000    -0.207000000    -0.540000000
C    -0.513000000     1.453000000     0.587000000
H     0.390000000     1.842000000     1.051000000
C    -1.720000000     2.108000000     0.973000000
H    -1.627000000     3.048000000     1.510000000
C    -2.930000000     1.644000000     0.488000000
C    -4.201000000     2.409000000     0.982000000
O    -4.148000000     3.523000000     1.491000000
O    -5.298000000     2.009000000     0.680000000
O    -7.457000000     2.850000000    -3.755000000
H    -8.074000000     3.575000000    -3.655000000
H    -6.983000000     2.822000000    -2.924000000
O    -7.208000000     3.344000000     5.308000000
H    -7.737000000     2.760000000     5.852000000
H    -7.065000000     2.853000000     4.499000000
O    -6.276000000     5.008000000     1.850000000
H    -6.873000000     4.343000000     2.194000000
H    -5.429000000     4.565000000     1.797000000
O    -2.942000000     4.621000000    -3.955000000
H    -2.245000000     5.120000000    -4.382000000
H    -3.732000000     5.141000000    -4.101000000
O    -8.319000000     6.751000000     0.366000000
H    -7.659000000     6.134000000     0.682000000
H    -8.617000000     7.207000000     1.152000000
O    -3.660000000     6.538000000    -0.915000000
H    -4.290000000     7.138000000    -1.314000000
H    -3.226000000     6.117000000    -1.658000000
O    -4.791000000     1.096000000    -3.423000000
H    -3.888000000     1.403000000    -3.347000000
H    -5.272000000     1.600000000    -2.766000000
O    -8.629000000     1.678000000     0.100000000
H    -8.515000000     0.759000000    -0.145000000
H    -8.023000000     2.154000000    -0.468000000
O    -7.288000000     2.166000000     2.760000000
H    -6.522000000     2.002000000     2.210000000
H    -8.035000000     2.027000000     2.177000000
O    -6.293000000     2.998000000    -1.440000000
H    -5.953000000     3.845000000    -1.153000000
H    -6.090000000     2.401000000    -0.720000000
O    -8.109000000    -0.848000000     3.661000000
H    -8.698000000    -0.097000000     3.587000000
H    -7.263000000    -0.467000000     3.894000000
O    -4.422000000     7.376000000     3.423000000
H    -4.553000000     6.428000000     3.453000000
H    -3.622000000     7.491000000     2.911000000
O    -2.647000000     5.464000000     1.552000000
H    -2.877000000     5.667000000     0.645000000
H    -3.274000000     4.789000000     1.813000000
O    -7.432000000     7.302000000     3.242000000
H    -6.890000000     8.091000000     3.261000000
H    -6.903000000     6.659000000     2.770000000
O    -7.382000000    -0.044000000    -3.560000000
H    -7.244000000    -0.504000000    -4.389000000
H    -6.593000000     0.485000000    -3.446000000
O    -8.412000000    -0.709000000    -1.076000000
H    -8.074000000    -0.456000000    -1.935000000
H    -7.971000000    -1.534000000    -0.878000000
O   -10.242000000     1.329000000     2.724000000
H   -11.161000000     1.271000000     2.462000000
H    -9.756000000     1.295000000     1.900000000
O    -1.733000000     8.166000000     2.386000000
H    -1.794000000     7.220000000     2.252000000
H    -1.138000000     8.264000000     3.130000000
O    -2.413000000     2.111000000    -2.949000000
H    -2.571000000     3.053000000    -3.001000000
H    -1.560000000     2.035000000    -2.520000000
