215
-1433.11805
C    -4.131000000    -1.510000000    -1.659000000
H    -4.504000000    -0.490000000    -1.703000000
C    -3.715000000    -2.093000000    -0.494000000
C    -3.238000000    -3.407000000    -0.571000000
H    -2.833000000    -3.946000000     0.282000000
C    -3.647000000    -1.229000000     0.802000000
O    -4.644000000    -0.165000000     0.863000000
H    -2.642000000    -0.781000000     0.824000000
O    -3.824000000    -1.984000000     2.039000000
C    -3.075000000    -1.744000000     3.159000000
C    -2.058000000    -2.643000000     3.298000000
H    -2.029000000    -3.569000000     2.731000000
C    -1.025000000    -2.337000000     4.165000000
O     0.033000000    -3.226000000     4.148000000
C    -0.993000000    -1.151000000     4.880000000
C     0.223000000    -0.833000000     5.686000000
H    -0.079000000    -0.157000000     6.489000000
C     1.296000000    -0.151000000     4.893000000
C     1.260000000     1.205000000     4.772000000
H     0.455000000     1.751000000     5.257000000
H     0.585000000    -1.775000000     6.103000000
C    -2.072000000    -0.292000000     4.783000000
H    -1.900000000     0.631000000     5.332000000
C    -3.088000000    -0.538000000     3.858000000
C    -4.247000000     0.504000000     3.651000000
H    -4.507000000     0.969000000     4.604000000
H    -5.192000000     0.001000000     3.434000000
C    -3.845000000     1.343000000     2.478000000
C    -3.317000000     2.591000000     2.734000000
H    -3.227000000     2.772000000     3.802000000
C    -4.148000000     1.052000000     1.163000000
C    -3.883000000     1.959000000     0.107000000
H    -3.952000000     1.617000000    -0.923000000
C    -3.380000000     3.221000000     0.353000000
O    -3.043000000     4.088000000    -0.668000000
C    -1.701000000     4.042000000    -1.237000000
C    -1.663000000     3.979000000    -2.706000000
C    -0.507000000     4.436000000    -3.425000000
H     0.272000000     4.983000000    -2.901000000
C    -2.652000000     3.365000000    -3.449000000
H    -3.471000000     2.899000000    -2.908000000
O    -0.845000000     5.034000000    -0.682000000
H    -1.233000000     3.067000000    -1.036000000
C    -3.109000000     3.536000000     1.723000000
C    -2.259000000     4.693000000     2.101000000
H    -2.381000000     5.052000000     3.125000000
H    -2.608000000     5.544000000     1.513000000
C    -0.829000000     4.454000000     1.660000000
C    -0.054000000     3.961000000     2.723000000
H    -0.522000000     3.707000000     3.671000000
C    -0.202000000     4.714000000     0.441000000
C     1.144000000     4.416000000     0.293000000
H     1.606000000     4.499000000    -0.687000000
C     1.844000000     3.910000000     1.356000000
O     3.165000000     3.508000000     1.004000000
C     3.273000000     2.101000000     0.889000000
C     4.075000000     1.671000000    -0.348000000
C     4.188000000     2.480000000    -1.463000000
H     3.690000000     3.441000000    -1.559000000
C     4.606000000     0.346000000    -0.472000000
H     4.536000000    -0.358000000     0.353000000
O     3.846000000     1.571000000     2.116000000
H     2.292000000     1.632000000     0.723000000
C     1.262000000     3.740000000     2.577000000
C     2.128000000     3.319000000     3.757000000
H     1.844000000     3.722000000     4.732000000
H     3.044000000     3.862000000     3.517000000
C     2.184000000     1.836000000     3.862000000
C     3.015000000     1.059000000     3.102000000
C     3.107000000    -0.269000000     3.321000000
H     3.779000000    -0.941000000     2.794000000
C     2.159000000    -0.868000000     4.148000000
O     2.138000000    -2.250000000     4.179000000
C     1.144000000    -2.874000000     3.313000000
H     0.821000000    -2.143000000     2.557000000
C     1.632000000    -4.129000000     2.489000000
C     0.793000000    -5.160000000     2.120000000
H    -0.291000000    -5.124000000     2.196000000
C     2.925000000    -4.041000000     2.023000000
H     3.602000000    -3.283000000     2.407000000
C     3.480000000    -5.040000000     1.191000000
O     4.724000000    -5.118000000     0.787000000
C     2.606000000    -6.138000000     0.931000000
H     3.033000000    -6.902000000     0.287000000
C     1.316000000    -6.195000000     1.403000000
O     0.476000000    -7.258000000     1.027000000
C    -0.768000000    -7.119000000     0.532000000
C    -1.025000000    -6.203000000    -0.478000000
H    -0.262000000    -5.571000000    -0.925000000
C    -1.764000000    -7.963000000     1.057000000
H    -1.493000000    -8.689000000     1.819000000
C    -3.084000000    -7.886000000     0.645000000
H    -3.850000000    -8.582000000     0.977000000
C    -3.355000000    -6.960000000    -0.363000000
H    -4.354000000    -6.786000000    -0.755000000
C    -2.343000000    -6.163000000    -0.967000000
O    -2.623000000    -5.353000000    -1.946000000
C    -3.246000000    -4.134000000    -1.744000000
C    -3.569000000    -3.402000000    -2.852000000
H    -3.572000000    -4.029000000    -3.740000000
C    -4.054000000    -2.175000000    -2.829000000
O    -4.385000000    -1.605000000    -4.009000000
C    -4.917000000    -0.377000000    -4.259000000
C    -4.014000000     0.582000000    -4.711000000
H    -2.958000000     0.337000000    -4.793000000
C    -6.295000000    -0.168000000    -4.191000000
H    -6.953000000    -0.939000000    -3.800000000
C    -6.807000000     1.104000000    -4.517000000
H    -7.845000000     1.328000000    -4.283000000
C    -5.893000000     2.095000000    -5.019000000
H    -6.061000000     3.144000000    -5.247000000
C    -4.556000000     1.773000000    -5.196000000
O    -3.637000000     2.701000000    -5.608000000
C    -2.596000000     3.245000000    -4.845000000
C    -1.418000000     3.572000000    -5.502000000
H    -1.270000000     3.380000000    -6.562000000
C    -0.362000000     4.166000000    -4.794000000
O     0.770000000     4.621000000    -5.488000000
C     1.952000000     4.776000000    -4.812000000
C     2.700000000     3.662000000    -4.532000000
H     2.305000000     2.661000000    -4.683000000
C     2.384000000     6.045000000    -4.522000000
H     1.657000000     6.774000000    -4.870000000
C     3.674000000     6.220000000    -4.005000000
H     4.112000000     7.130000000    -3.604000000
C     4.491000000     5.126000000    -3.826000000
H     5.513000000     5.230000000    -3.472000000
C     3.973000000     3.859000000    -4.040000000
O     4.871000000     2.848000000    -3.774000000
C     4.894000000     2.108000000    -2.591000000
C     5.392000000     0.836000000    -2.714000000
H     6.025000000     0.518000000    -3.539000000
C     5.244000000    -0.016000000    -1.649000000
O     5.832000000    -1.205000000    -1.834000000
C     6.039000000    -2.090000000    -0.785000000
C     7.364000000    -2.125000000    -0.165000000
H     8.053000000    -1.338000000    -0.460000000
C     7.683000000    -3.021000000     0.836000000
H     8.709000000    -3.027000000     1.194000000
C     6.710000000    -3.984000000     1.215000000
H     6.996000000    -4.759000000     1.921000000
C     5.493000000    -4.058000000     0.501000000
C     5.200000000    -3.134000000    -0.516000000
H     4.244000000    -3.180000000    -1.032000000
C     1.115000000     0.064000000    -2.097000000
H     1.625000000     0.359000000    -3.011000000
C     0.670000000     1.068000000    -1.307000000
H     0.764000000     2.116000000    -1.581000000
C     0.232000000     0.722000000    -0.011000000
H    -0.112000000     1.510000000     0.657000000
C     0.079000000    -0.584000000     0.407000000
H    -0.354000000    -0.763000000     1.388000000
C     0.317000000    -1.578000000    -0.505000000
H     0.015000000    -2.573000000    -0.189000000
C     0.976000000    -1.259000000    -1.698000000
C     1.556000000    -2.311000000    -2.705000000
O     1.346000000    -3.458000000    -2.383000000
O     1.993000000    -1.985000000    -3.826000000
O    -0.591000000    -1.973000000    -4.788000000
H     0.286000000    -2.019000000    -4.408000000
H    -1.014000000    -2.787000000    -4.516000000
O     0.458000000     0.781000000    -7.180000000
H     0.105000000     1.460000000    -7.756000000
H    -0.314000000     0.377000000    -6.785000000
O     4.818000000    -1.981000000    -4.168000000
H     4.011000000    -1.472000000    -4.239000000
H     5.026000000    -1.970000000    -3.234000000
O     4.202000000    -1.306000000    -8.887000000
H     5.114000000    -1.598000000    -8.916000000
H     3.938000000    -1.436000000    -7.976000000
O     2.809000000    -5.698000000    -3.195000000
H     2.314000000    -5.063000000    -2.677000000
H     2.727000000    -5.387000000    -4.097000000
O    -2.185000000    -0.818000000    -7.232000000
H    -3.113000000    -1.044000000    -7.306000000
H    -1.881000000    -1.306000000    -6.467000000
O    -0.590000000    -4.662000000    -6.916000000
H    -0.432000000    -4.772000000    -5.978000000
H    -1.502000000    -4.928000000    -7.038000000
O     2.626000000    -0.048000000    -5.658000000
H     1.899000000     0.073000000    -6.269000000
H     2.317000000    -0.716000000    -5.047000000
O     0.795000000    -7.823000000    -3.411000000
H    -0.051000000    -7.447000000    -3.656000000
H     1.301000000    -7.080000000    -3.081000000
O     5.270000000    -6.963000000    -3.385000000
H     4.463000000    -6.452000000    -3.327000000
H     5.651000000    -6.909000000    -2.508000000
O     4.797000000     1.621000000    -6.419000000
H     4.095000000     1.132000000    -5.989000000
H     4.363000000     2.081000000    -7.137000000
O     5.614000000    -2.939000000    -6.534000000
H     5.106000000    -3.583000000    -7.028000000
H     5.490000000    -3.189000000    -5.618000000
O     2.764000000    -7.566000000    -5.873000000
H     2.915000000    -6.876000000    -5.227000000
H     2.178000000    -7.167000000    -6.517000000
O     0.700000000    -2.743000000    -9.614000000
H     0.698000000    -2.430000000    -8.710000000
H     0.792000000    -1.950000000   -10.142000000
O    -0.467000000    -4.870000000    -3.935000000
H     0.196000000    -4.411000000    -3.419000000
H    -1.034000000    -5.283000000    -3.283000000
O     6.885000000    -0.262000000    -5.728000000
H     6.211000000    -0.939000000    -5.783000000
H     6.400000000     0.562000000    -5.773000000
O     1.734000000    -5.845000000    -7.903000000
H     1.050000000    -5.239000000    -7.619000000
H     1.294000000    -6.433000000    -8.517000000
O     2.474000000    -4.314000000    -5.426000000
H     2.069000000    -3.508000000    -5.104000000
H     2.693000000    -4.125000000    -6.338000000
O     6.261000000    -6.597000000    -0.889000000
H     5.660000000    -5.981000000    -0.470000000
H     6.975000000    -6.050000000    -1.218000000
