215
-1420.18140
C    -4.329000000    -1.592000000    -1.478000000
H    -4.545000000    -0.527000000    -1.459000000
C    -3.774000000    -2.034000000    -0.284000000
C    -3.362000000    -3.388000000    -0.199000000
H    -3.023000000    -3.866000000     0.717000000
C    -3.715000000    -1.059000000     0.907000000
O    -4.668000000    -0.098000000     0.835000000
H    -2.770000000    -0.497000000     0.953000000
O    -3.841000000    -1.723000000     2.168000000
C    -2.866000000    -1.480000000     3.031000000
C    -1.894000000    -2.429000000     3.211000000
H    -1.969000000    -3.409000000     2.746000000
C    -0.850000000    -2.180000000     4.025000000
O     0.183000000    -3.048000000     4.064000000
C    -0.837000000    -0.951000000     4.771000000
C     0.450000000    -0.590000000     5.444000000
H     0.246000000     0.080000000     6.282000000
C     1.465000000     0.034000000     4.533000000
C     1.447000000     1.440000000     4.418000000
H     0.688000000     2.009000000     4.948000000
H     0.840000000    -1.448000000     5.995000000
C    -1.923000000    -0.020000000     4.644000000
H    -1.992000000     0.896000000     5.225000000
C    -2.931000000    -0.239000000     3.755000000
C    -4.067000000     0.748000000     3.614000000
H    -4.011000000     1.285000000     4.563000000
H    -4.952000000     0.119000000     3.501000000
C    -3.890000000     1.690000000     2.394000000
C    -3.182000000     2.835000000     2.568000000
H    -2.932000000     3.282000000     3.527000000
C    -4.318000000     1.252000000     1.128000000
C    -3.998000000     2.020000000     0.027000000
H    -4.153000000     1.750000000    -1.014000000
C    -3.361000000     3.266000000     0.228000000
O    -2.991000000     4.032000000    -0.835000000
C    -1.568000000     3.813000000    -1.290000000
C    -1.705000000     3.699000000    -2.799000000
C    -0.575000000     3.870000000    -3.595000000
H     0.356000000     4.119000000    -3.093000000
C    -2.832000000     3.197000000    -3.510000000
H    -3.747000000     3.081000000    -2.936000000
O    -0.843000000     4.950000000    -0.919000000
H    -1.173000000     2.897000000    -0.824000000
C    -2.852000000     3.635000000     1.450000000
C    -2.087000000     4.910000000     1.706000000
H    -2.295000000     5.198000000     2.739000000
H    -2.454000000     5.809000000     1.206000000
C    -0.584000000     4.734000000     1.469000000
C     0.234000000     4.343000000     2.502000000
H    -0.074000000     4.349000000     3.544000000
C    -0.067000000     4.853000000     0.165000000
C     1.222000000     4.518000000    -0.152000000
H     1.680000000     4.637000000    -1.131000000
C     2.028000000     4.001000000     0.884000000
O     3.256000000     3.531000000     0.604000000
C     3.375000000     2.075000000     0.536000000
C     4.207000000     1.636000000    -0.694000000
C     4.198000000     2.400000000    -1.878000000
H     3.888000000     3.438000000    -1.797000000
C     4.759000000     0.402000000    -0.740000000
H     4.841000000    -0.233000000     0.138000000
O     3.991000000     1.594000000     1.735000000
H     2.339000000     1.716000000     0.455000000
C     1.538000000     4.028000000     2.203000000
C     2.401000000     3.512000000     3.393000000
H     2.097000000     3.946000000     4.348000000
H     3.459000000     3.771000000     3.312000000
C     2.414000000     2.012000000     3.571000000
C     3.237000000     1.219000000     2.823000000
C     3.221000000    -0.206000000     2.993000000
H     3.985000000    -0.822000000     2.526000000
C     2.402000000    -0.737000000     3.971000000
O     2.453000000    -2.128000000     4.027000000
C     1.375000000    -2.852000000     3.252000000
H     1.203000000    -2.228000000     2.362000000
C     1.892000000    -4.104000000     2.565000000
C     1.067000000    -5.256000000     2.387000000
H     0.081000000    -5.267000000     2.843000000
C     3.190000000    -4.089000000     1.988000000
H     3.819000000    -3.203000000     2.018000000
C     3.647000000    -5.206000000     1.222000000
O     4.967000000    -5.280000000     0.710000000
C     2.714000000    -6.269000000     1.014000000
H     3.021000000    -7.219000000     0.584000000
C     1.471000000    -6.306000000     1.570000000
O     0.658000000    -7.322000000     1.277000000
C    -0.684000000    -7.194000000     1.112000000
C    -1.083000000    -6.480000000    -0.004000000
H    -0.343000000    -6.171000000    -0.738000000
C    -1.666000000    -7.582000000     2.058000000
H    -1.407000000    -8.010000000     3.023000000
C    -2.959000000    -7.253000000     1.830000000
H    -3.723000000    -7.511000000     2.559000000
C    -3.382000000    -6.716000000     0.658000000
H    -4.421000000    -6.448000000     0.487000000
C    -2.435000000    -6.245000000    -0.207000000
O    -2.844000000    -5.560000000    -1.315000000
C    -3.361000000    -4.212000000    -1.340000000
C    -3.971000000    -3.700000000    -2.503000000
H    -4.041000000    -4.378000000    -3.350000000
C    -4.430000000    -2.414000000    -2.600000000
O    -4.768000000    -1.881000000    -3.841000000
C    -5.170000000    -0.587000000    -4.064000000
C    -4.331000000     0.339000000    -4.550000000
H    -3.283000000     0.064000000    -4.637000000
C    -6.511000000    -0.335000000    -3.930000000
H    -7.188000000    -1.121000000    -3.605000000
C    -7.036000000     0.938000000    -4.213000000
H    -8.093000000     1.192000000    -4.179000000
C    -6.156000000     1.882000000    -4.774000000
H    -6.538000000     2.839000000    -5.122000000
C    -4.821000000     1.568000000    -4.962000000
O    -4.040000000     2.524000000    -5.533000000
C    -2.835000000     2.989000000    -4.926000000
C    -1.730000000     3.357000000    -5.614000000
H    -1.842000000     3.207000000    -6.684000000
C    -0.585000000     3.698000000    -5.016000000
O     0.562000000     3.939000000    -5.805000000
C     1.790000000     4.286000000    -5.287000000
C     2.689000000     3.278000000    -5.010000000
H     2.458000000     2.274000000    -5.356000000
C     1.940000000     5.552000000    -4.798000000
H     1.184000000     6.303000000    -5.011000000
C     3.099000000     5.936000000    -4.090000000
H     3.137000000     6.943000000    -3.685000000
C     4.046000000     4.990000000    -3.887000000
H     4.980000000     5.324000000    -3.442000000
C     3.898000000     3.686000000    -4.424000000
O     4.904000000     2.719000000    -4.127000000
C     4.754000000     1.911000000    -3.043000000
C     5.431000000     0.628000000    -3.006000000
H     5.870000000     0.130000000    -3.866000000
C     5.384000000    -0.121000000    -1.864000000
O     5.859000000    -1.435000000    -1.865000000
C     6.111000000    -2.231000000    -0.712000000
C     7.215000000    -1.982000000     0.047000000
H     7.945000000    -1.198000000    -0.138000000
C     7.446000000    -2.859000000     1.180000000
H     8.279000000    -2.627000000     1.839000000
C     6.676000000    -3.987000000     1.393000000
H     6.803000000    -4.619000000     2.269000000
C     5.653000000    -4.190000000     0.520000000
C     5.234000000    -3.282000000    -0.432000000
H     4.356000000    -3.497000000    -1.035000000
C     1.645000000    -0.173000000    -2.110000000
H     2.205000000     0.223000000    -2.953000000
C     0.853000000     0.633000000    -1.331000000
H     0.984000000     1.704000000    -1.461000000
C    -0.002000000     0.093000000    -0.364000000
H    -0.682000000     0.807000000     0.268000000
C    -0.069000000    -1.292000000    -0.254000000
H    -0.668000000    -1.805000000     0.494000000
C     0.793000000    -2.095000000    -1.042000000
H     0.674000000    -3.159000000    -0.853000000
C     1.605000000    -1.574000000    -2.023000000
C     2.423000000    -2.453000000    -2.953000000
O     2.281000000    -3.652000000    -3.010000000
O     3.298000000    -2.054000000    -3.703000000
O    -1.496000000    -1.961000000    -3.388000000
H    -0.844000000    -1.734000000    -2.725000000
H    -2.187000000    -2.410000000    -2.900000000
O     2.487000000    -5.669000000    -8.202000000
H     1.661000000    -6.151000000    -8.250000000
H     2.233000000    -4.750000000    -8.286000000
O     1.194000000    -0.056000000    -7.142000000
H     0.267000000    -0.282000000    -7.060000000
H     1.446000000    -0.388000000    -8.004000000
O     5.908000000    -2.476000000    -5.777000000
H     5.906000000    -1.565000000    -6.069000000
H     6.068000000    -2.426000000    -4.835000000
O     5.059000000    -4.608000000    -3.673000000
H     4.508000000    -4.760000000    -4.441000000
H     4.600000000    -3.927000000    -3.181000000
O     2.262000000    -6.227000000    -2.346000000
H     2.059000000    -5.292000000    -2.317000000
H     2.808000000    -6.330000000    -3.126000000
O    -1.371000000    -1.332000000    -6.062000000
H    -1.583000000    -2.244000000    -6.262000000
H    -1.083000000    -1.348000000    -5.149000000
O    -1.715000000    -4.084000000    -7.221000000
H    -1.035000000    -4.272000000    -6.574000000
H    -2.472000000    -4.590000000    -6.927000000
O     3.622000000    -0.139000000    -5.651000000
H     2.844000000    -0.041000000    -6.200000000
H     3.322000000    -0.649000000    -4.899000000
O     1.335000000    -8.873000000    -1.290000000
H     1.171000000    -8.782000000    -0.351000000
H     1.453000000    -7.975000000    -1.600000000
O     5.829000000    -7.195000000    -3.273000000
H     6.182000000    -6.758000000    -4.048000000
H     5.080000000    -6.657000000    -3.015000000
O     5.975000000    -0.015000000    -6.918000000
H     5.094000000     0.155000000    -6.583000000
H     6.518000000     0.662000000    -6.515000000
O     5.897000000    -3.857000000    -8.181000000
H     5.087000000    -3.491000000    -8.538000000
H     6.056000000    -3.353000000    -7.383000000
O     6.871000000    -5.903000000    -5.618000000
H     6.589000000    -5.131000000    -5.127000000
H     7.757000000    -5.689000000    -5.912000000
O     8.965000000    -2.994000000    -3.934000000
H     8.153000000    -3.496000000    -3.859000000
H     9.217000000    -3.084000000    -4.853000000
O     2.757000000    -6.068000000    -4.998000000
H     2.587000000    -5.126000000    -5.028000000
H     2.093000000    -6.450000000    -5.571000000
O     1.147000000    -3.266000000    -8.207000000
H     1.020000000    -3.189000000    -7.261000000
H     0.264000000    -3.214000000    -8.572000000
O     0.063000000    -4.337000000    -5.017000000
H     0.366000000    -4.032000000    -4.161000000
H    -0.370000000    -5.171000000    -4.834000000
O     3.293000000    -3.390000000    -5.943000000
H     3.092000000    -3.150000000    -5.038000000
H     3.925000000    -2.730000000    -6.231000000
