215
-1452.08655
C    -3.581000000    -1.336000000    -1.567000000
H    -3.182000000    -0.332000000    -1.686000000
C    -3.922000000    -1.794000000    -0.289000000
C    -4.179000000    -3.206000000    -0.122000000
H    -4.460000000    -3.664000000     0.823000000
C    -3.693000000    -0.832000000     0.903000000
O    -4.427000000     0.432000000     0.589000000
H    -2.596000000    -0.776000000     0.961000000
O    -4.255000000    -1.438000000     2.146000000
C    -3.407000000    -1.254000000     3.215000000
C    -2.525000000    -2.318000000     3.435000000
H    -2.514000000    -3.174000000     2.764000000
C    -1.404000000    -2.102000000     4.260000000
O    -0.420000000    -3.025000000     4.282000000
C    -1.178000000    -0.902000000     4.932000000
C     0.111000000    -0.598000000     5.688000000
H    -0.139000000     0.242000000     6.339000000
C     1.157000000    -0.056000000     4.736000000
C     1.467000000     1.301000000     4.567000000
H     0.909000000     2.049000000     5.123000000
H     0.290000000    -1.443000000     6.358000000
C    -2.055000000     0.132000000     4.594000000
H    -1.761000000     1.101000000     4.990000000
C    -3.232000000     0.013000000     3.763000000
C    -4.160000000     1.211000000     3.437000000
H    -4.104000000     1.878000000     4.299000000
H    -5.204000000     0.898000000     3.359000000
C    -3.592000000     2.008000000     2.235000000
C    -2.736000000     3.113000000     2.502000000
H    -2.262000000     3.205000000     3.476000000
C    -3.885000000     1.633000000     0.944000000
C    -3.613000000     2.555000000    -0.080000000
H    -3.910000000     2.320000000    -1.099000000
C    -2.919000000     3.688000000     0.150000000
O    -2.474000000     4.426000000    -0.945000000
C    -1.170000000     4.240000000    -1.353000000
C    -0.933000000     4.177000000    -2.908000000
C     0.081000000     4.903000000    -3.523000000
H     0.814000000     5.529000000    -3.019000000
C    -1.847000000     3.497000000    -3.713000000
H    -2.687000000     2.954000000    -3.288000000
O    -0.364000000     5.290000000    -0.822000000
H    -0.885000000     3.229000000    -1.026000000
C    -2.406000000     4.002000000     1.442000000
C    -1.526000000     5.162000000     1.735000000
H    -1.669000000     5.450000000     2.779000000
H    -1.743000000     5.916000000     0.976000000
C    -0.057000000     4.780000000     1.494000000
C     0.678000000     4.379000000     2.616000000
H     0.203000000     4.331000000     3.592000000
C     0.488000000     4.856000000     0.201000000
C     1.818000000     4.437000000     0.028000000
H     2.302000000     4.446000000    -0.945000000
C     2.564000000     4.001000000     1.149000000
O     3.716000000     3.303000000     0.869000000
C     3.634000000     1.878000000     0.850000000
C     4.206000000     1.315000000    -0.360000000
C     4.036000000     1.998000000    -1.564000000
H     3.454000000     2.909000000    -1.681000000
C     4.772000000     0.040000000    -0.349000000
H     4.833000000    -0.533000000     0.573000000
O     4.163000000     1.358000000     2.067000000
H     2.561000000     1.636000000     0.842000000
C     1.962000000     3.867000000     2.441000000
C     2.732000000     3.328000000     3.611000000
H     2.378000000     3.917000000     4.460000000
H     3.802000000     3.505000000     3.487000000
C     2.487000000     1.804000000     3.777000000
C     3.187000000     0.926000000     2.958000000
C     2.946000000    -0.427000000     3.145000000
H     3.611000000    -1.040000000     2.542000000
C     1.936000000    -0.952000000     3.971000000
O     1.711000000    -2.340000000     3.952000000
C     0.585000000    -2.832000000     3.285000000
H     0.265000000    -2.061000000     2.568000000
C     0.843000000    -4.093000000     2.430000000
C    -0.106000000    -5.134000000     2.327000000
H    -1.071000000    -5.140000000     2.829000000
C     2.039000000    -4.217000000     1.674000000
H     2.830000000    -3.472000000     1.712000000
C     2.244000000    -5.388000000     0.958000000
O     3.351000000    -5.485000000     0.144000000
C     1.287000000    -6.366000000     0.883000000
H     1.542000000    -7.307000000     0.403000000
C     0.113000000    -6.296000000     1.587000000
O    -0.863000000    -7.301000000     1.586000000
C    -2.170000000    -7.205000000     1.216000000
C    -2.570000000    -6.388000000     0.146000000
H    -1.865000000    -5.689000000    -0.297000000
C    -3.055000000    -8.094000000     1.869000000
H    -2.679000000    -8.668000000     2.713000000
C    -4.393000000    -8.071000000     1.420000000
H    -5.104000000    -8.618000000     2.035000000
C    -4.789000000    -7.196000000     0.395000000
H    -5.827000000    -7.002000000     0.140000000
C    -3.879000000    -6.334000000    -0.259000000
O    -4.348000000    -5.417000000    -1.190000000
C    -4.115000000    -4.102000000    -1.220000000
C    -3.831000000    -3.569000000    -2.453000000
H    -3.798000000    -4.274000000    -3.280000000
C    -3.609000000    -2.197000000    -2.681000000
O    -3.264000000    -1.661000000    -3.879000000
C    -3.785000000    -0.457000000    -4.324000000
C    -2.826000000     0.493000000    -4.733000000
H    -1.746000000     0.443000000    -4.621000000
C    -5.140000000    -0.161000000    -4.479000000
H    -5.862000000    -0.922000000    -4.195000000
C    -5.543000000     1.128000000    -4.847000000
H    -6.593000000     1.403000000    -4.786000000
C    -4.679000000     1.949000000    -5.489000000
H    -4.975000000     2.951000000    -5.786000000
C    -3.288000000     1.641000000    -5.385000000
O    -2.416000000     2.595000000    -5.780000000
C    -1.545000000     3.321000000    -5.090000000
C    -0.608000000     4.081000000    -5.712000000
H    -0.437000000     4.157000000    -6.783000000
C     0.181000000     4.841000000    -4.856000000
O     1.245000000     5.418000000    -5.475000000
C     2.486000000     5.087000000    -4.993000000
C     2.969000000     3.791000000    -4.951000000
H     2.386000000     3.021000000    -5.449000000
C     3.332000000     6.067000000    -4.440000000
H     3.154000000     7.138000000    -4.500000000
C     4.483000000     5.659000000    -3.729000000
H     5.040000000     6.448000000    -3.231000000
C     4.829000000     4.337000000    -3.614000000
H     5.642000000     3.990000000    -2.982000000
C     4.042000000     3.364000000    -4.178000000
O     4.264000000     1.956000000    -3.982000000
C     4.425000000     1.397000000    -2.764000000
C     4.966000000     0.107000000    -2.739000000
H     5.292000000    -0.275000000    -3.703000000
C     5.095000000    -0.603000000    -1.543000000
O     5.853000000    -1.763000000    -1.610000000
C     5.716000000    -2.802000000    -0.723000000
C     6.684000000    -2.970000000     0.295000000
H     7.509000000    -2.279000000     0.450000000
C     6.657000000    -4.090000000     1.132000000
H     7.488000000    -4.324000000     1.792000000
C     5.572000000    -4.939000000     1.056000000
H     5.549000000    -5.912000000     1.539000000
C     4.527000000    -4.703000000     0.166000000
C     4.575000000    -3.655000000    -0.761000000
H     3.731000000    -3.429000000    -1.407000000
C     0.805000000     0.389000000    -1.780000000
H     1.191000000     1.141000000    -2.464000000
C     0.256000000     0.786000000    -0.540000000
H     0.311000000     1.773000000    -0.089000000
C    -0.165000000    -0.195000000     0.298000000
H    -0.544000000     0.172000000     1.321000000
C    -0.272000000    -1.537000000    -0.157000000
H    -0.699000000    -2.266000000     0.527000000
C     0.317000000    -1.949000000    -1.293000000
H     0.344000000    -3.012000000    -1.519000000
C     0.930000000    -0.992000000    -2.128000000
C     1.478000000    -1.436000000    -3.467000000
O     1.370000000    -2.683000000    -3.756000000
O     2.075000000    -0.732000000    -4.267000000
O    -1.569000000    -2.749000000    -5.851000000
H    -0.731000000    -2.339000000    -6.064000000
H    -1.870000000    -2.286000000    -5.069000000
O     0.533000000     0.198000000    -6.071000000
H     0.990000000    -0.522000000    -6.505000000
H     0.998000000     0.313000000    -5.242000000
O     3.830000000    -3.132000000    -4.644000000
H     2.936000000    -3.071000000    -4.307000000
H     4.027000000    -2.251000000    -4.963000000
O     1.477000000    -3.107000000    -9.444000000
H     1.285000000    -3.900000000    -8.944000000
H     0.782000000    -3.063000000   -10.100000000
O     2.889000000    -7.543000000    -1.725000000
H     2.110000000    -8.094000000    -1.802000000
H     2.640000000    -6.861000000    -1.102000000
O    -2.490000000    -3.021000000    -8.695000000
H    -3.347000000    -2.833000000    -8.314000000
H    -1.870000000    -2.863000000    -7.983000000
O    -1.228000000    -7.159000000    -4.080000000
H    -0.555000000    -6.488000000    -3.968000000
H    -1.906000000    -6.733000000    -4.604000000
O     7.205000000    -2.417000000    -4.079000000
H     6.853000000    -2.087000000    -3.252000000
H     6.784000000    -3.269000000    -4.195000000
O     5.658000000    -4.932000000    -5.089000000
H     5.831000000    -5.353000000    -4.246000000
H     4.901000000    -4.370000000    -4.925000000
O     3.979000000    -0.738000000    -6.097000000
H     3.402000000    -0.605000000    -5.345000000
H     3.419000000    -0.584000000    -6.858000000
O    -3.055000000    -5.323000000    -5.669000000
H    -3.938000000    -5.482000000    -6.001000000
H    -3.022000000    -4.379000000    -5.518000000
O     2.293000000    -1.002000000    -8.228000000
H     2.050000000    -1.783000000    -8.724000000
H     2.323000000    -0.303000000    -8.881000000
O     6.638000000     0.738000000    -6.203000000
H     5.744000000     0.476000000    -5.982000000
H     7.013000000    -0.029000000    -6.636000000
O    -0.163000000     1.193000000    -8.584000000
H    -0.955000000     1.542000000    -8.175000000
H     0.431000000     1.026000000    -7.852000000
O     6.470000000    -1.980000000    -6.850000000
H     5.676000000    -1.455000000    -6.750000000
H     6.816000000    -2.062000000    -5.961000000
O     6.560000000    -4.996000000    -2.515000000
H     7.443000000    -4.796000000    -2.206000000
H     6.060000000    -5.168000000    -1.717000000
O     0.697000000    -5.116000000    -3.365000000
H     0.766000000    -4.175000000    -3.526000000
H     1.273000000    -5.274000000    -2.617000000
O     1.012000000    -5.927000000    -6.002000000
H     1.290000000    -5.537000000    -5.174000000
H     1.020000000    -5.200000000    -6.624000000
O     0.994000000    -2.934000000    -6.413000000
H     1.102000000    -2.804000000    -5.470000000
H     1.862000000    -2.766000000    -6.779000000
