215
-1451.12901
C    -3.824000000    -1.232000000    -1.419000000
H    -3.708000000    -0.175000000    -1.643000000
C    -3.951000000    -1.577000000    -0.059000000
C    -4.043000000    -2.909000000     0.142000000
H    -4.083000000    -3.288000000     1.160000000
C    -3.947000000    -0.507000000     1.070000000
O    -4.766000000     0.696000000     0.706000000
H    -2.929000000    -0.100000000     1.165000000
O    -4.228000000    -1.007000000     2.417000000
C    -3.278000000    -0.805000000     3.439000000
C    -2.361000000    -1.811000000     3.645000000
H    -2.413000000    -2.744000000     3.090000000
C    -1.251000000    -1.546000000     4.400000000
O    -0.382000000    -2.639000000     4.537000000
C    -0.966000000    -0.305000000     4.975000000
C     0.297000000     0.015000000     5.725000000
H     0.029000000     0.771000000     6.467000000
C     1.336000000     0.336000000     4.722000000
C     1.638000000     1.723000000     4.491000000
H     1.101000000     2.434000000     5.115000000
H     0.629000000    -0.839000000     6.319000000
C    -1.976000000     0.711000000     4.824000000
H    -1.753000000     1.743000000     5.079000000
C    -3.175000000     0.466000000     4.027000000
C    -4.182000000     1.542000000     3.642000000
H    -4.132000000     2.250000000     4.472000000
H    -5.176000000     1.105000000     3.524000000
C    -3.757000000     2.279000000     2.381000000
C    -2.913000000     3.418000000     2.451000000
H    -2.484000000     3.774000000     3.384000000
C    -4.135000000     1.867000000     1.118000000
C    -3.761000000     2.602000000    -0.002000000
H    -4.077000000     2.262000000    -0.985000000
C    -3.013000000     3.738000000     0.023000000
O    -2.542000000     4.201000000    -1.152000000
C    -1.128000000     4.052000000    -1.595000000
C    -0.922000000     3.677000000    -3.084000000
C     0.132000000     4.072000000    -3.827000000
H     1.016000000     4.570000000    -3.435000000
C    -2.081000000     3.236000000    -3.738000000
H    -2.992000000     2.978000000    -3.204000000
O    -0.359000000     5.208000000    -1.190000000
H    -0.848000000     3.193000000    -0.968000000
C    -2.519000000     4.099000000     1.279000000
C    -1.605000000     5.240000000     1.440000000
H    -1.763000000     5.781000000     2.375000000
H    -1.873000000     5.899000000     0.611000000
C    -0.137000000     4.921000000     1.175000000
C     0.671000000     4.559000000     2.207000000
H     0.278000000     4.508000000     3.219000000
C     0.439000000     4.952000000    -0.098000000
C     1.756000000     4.479000000    -0.251000000
H     2.154000000     4.465000000    -1.262000000
C     2.476000000     3.982000000     0.743000000
O     3.642000000     3.381000000     0.428000000
C     3.657000000     1.915000000     0.551000000
C     4.473000000     1.249000000    -0.605000000
C     4.478000000     1.898000000    -1.899000000
H     4.060000000     2.889000000    -2.056000000
C     5.073000000    -0.018000000    -0.477000000
H     5.023000000    -0.388000000     0.544000000
O     4.182000000     1.506000000     1.834000000
H     2.634000000     1.538000000     0.410000000
C     1.967000000     4.093000000     2.039000000
C     2.700000000     3.625000000     3.250000000
H     2.317000000     4.199000000     4.097000000
H     3.748000000     3.858000000     3.051000000
C     2.546000000     2.123000000     3.527000000
C     3.252000000     1.151000000     2.807000000
C     3.075000000    -0.193000000     3.137000000
H     3.651000000    -0.937000000     2.594000000
C     2.055000000    -0.617000000     3.999000000
O     1.813000000    -1.977000000     4.105000000
C     0.615000000    -2.552000000     3.505000000
H     0.266000000    -1.861000000     2.723000000
C     0.907000000    -3.956000000     2.855000000
C    -0.055000000    -4.935000000     2.998000000
H    -0.935000000    -4.833000000     3.628000000
C     1.933000000    -4.085000000     1.978000000
H     2.577000000    -3.267000000     1.666000000
C     1.988000000    -5.227000000     1.196000000
O     3.013000000    -5.234000000     0.250000000
C     1.078000000    -6.258000000     1.341000000
H     1.101000000    -7.176000000     0.760000000
C     0.153000000    -6.110000000     2.307000000
O    -0.756000000    -7.143000000     2.368000000
C    -2.095000000    -7.047000000     1.881000000
C    -2.456000000    -6.277000000     0.772000000
H    -1.664000000    -5.824000000     0.183000000
C    -3.076000000    -7.740000000     2.553000000
H    -2.802000000    -8.435000000     3.342000000
C    -4.415000000    -7.508000000     2.296000000
H    -5.200000000    -8.019000000     2.848000000
C    -4.785000000    -6.702000000     1.221000000
H    -5.815000000    -6.491000000     0.946000000
C    -3.808000000    -6.044000000     0.471000000
O    -4.247000000    -5.308000000    -0.604000000
C    -4.088000000    -3.954000000    -0.836000000
C    -3.904000000    -3.537000000    -2.165000000
H    -3.625000000    -4.281000000    -2.906000000
C    -3.660000000    -2.189000000    -2.409000000
O    -3.205000000    -1.847000000    -3.655000000
C    -3.836000000    -0.975000000    -4.487000000
C    -3.104000000     0.188000000    -4.651000000
H    -2.115000000     0.256000000    -4.205000000
C    -5.094000000    -1.126000000    -5.027000000
H    -5.633000000    -2.068000000    -4.979000000
C    -5.717000000    -0.143000000    -5.792000000
H    -6.721000000    -0.255000000    -6.193000000
C    -5.028000000     1.080000000    -5.997000000
H    -5.347000000     1.895000000    -6.642000000
C    -3.689000000     1.163000000    -5.441000000
O    -3.115000000     2.360000000    -5.780000000
C    -1.983000000     2.982000000    -5.106000000
C    -0.924000000     3.380000000    -5.855000000
H    -0.725000000     3.095000000    -6.884000000
C     0.180000000     3.842000000    -5.201000000
O     1.298000000     4.127000000    -5.933000000
C     2.597000000     4.129000000    -5.353000000
C     3.275000000     2.896000000    -5.087000000
H     2.854000000     1.904000000    -5.229000000
C     3.254000000     5.343000000    -5.102000000
H     2.760000000     6.276000000    -5.359000000
C     4.506000000     5.372000000    -4.572000000
H     4.960000000     6.330000000    -4.330000000
C     5.205000000     4.174000000    -4.248000000
H     6.165000000     4.164000000    -3.739000000
C     4.541000000     2.963000000    -4.575000000
O     5.147000000     1.790000000    -4.313000000
C     5.182000000     1.291000000    -2.965000000
C     5.798000000    -0.023000000    -2.777000000
H     6.332000000    -0.540000000    -3.569000000
C     5.705000000    -0.631000000    -1.527000000
O     6.164000000    -1.988000000    -1.462000000
C     5.733000000    -2.919000000    -0.481000000
C     6.621000000    -3.238000000     0.529000000
H     7.546000000    -2.679000000     0.649000000
C     6.224000000    -4.227000000     1.430000000
H     6.881000000    -4.352000000     2.287000000
C     5.014000000    -4.858000000     1.280000000
H     4.639000000    -5.541000000     2.037000000
C     4.166000000    -4.514000000     0.265000000
C     4.531000000    -3.509000000    -0.669000000
H     3.875000000    -3.226000000    -1.488000000
C     0.577000000     0.630000000    -1.291000000
H     1.085000000     1.346000000    -1.932000000
C     0.224000000     0.996000000    -0.019000000
H     0.299000000     2.022000000     0.332000000
C    -0.378000000     0.073000000     0.754000000
H    -0.751000000     0.415000000     1.741000000
C    -0.476000000    -1.274000000     0.330000000
H    -0.995000000    -2.019000000     0.928000000
C    -0.062000000    -1.686000000    -0.964000000
H    -0.102000000    -2.715000000    -1.312000000
C     0.509000000    -0.649000000    -1.786000000
C     1.084000000    -0.876000000    -3.167000000
O     0.774000000    -1.910000000    -3.715000000
O     1.464000000     0.057000000    -3.848000000
O     4.684000000    -4.766000000    -8.171000000
H     4.903000000    -4.340000000    -7.342000000
H     5.531000000    -5.007000000    -8.547000000
O    -1.097000000    -1.975000000    -7.270000000
H    -1.262000000    -2.755000000    -6.739000000
H    -0.597000000    -1.395000000    -6.696000000
O     0.057000000     0.176000000    -6.232000000
H     0.937000000     0.438000000    -6.502000000
H     0.057000000     0.283000000    -5.281000000
O     1.754000000    -4.423000000    -3.154000000
H     1.342000000    -3.587000000    -3.369000000
H     2.451000000    -4.521000000    -3.803000000
O     1.262000000    -1.921000000    -9.183000000
H     1.141000000    -2.156000000    -8.263000000
H     0.394000000    -2.024000000    -9.573000000
O    -0.183000000    -4.897000000    -8.068000000
H     0.439000000    -4.285000000    -7.675000000
H     0.052000000    -5.748000000    -7.698000000
O     7.864000000     0.590000000    -5.147000000
H     7.892000000     1.157000000    -4.376000000
H     6.960000000     0.651000000    -5.456000000
O     4.641000000    -4.544000000    -4.192000000
H     5.032000000    -3.966000000    -3.536000000
H     4.988000000    -5.411000000    -3.985000000
O     3.383000000    -1.332000000    -5.277000000
H     2.941000000    -0.847000000    -4.580000000
H     2.986000000    -1.005000000    -6.085000000
O     1.604000000    -8.540000000    -2.862000000
H     1.096000000    -8.767000000    -3.641000000
H     1.212000000    -7.724000000    -2.549000000
O     1.672000000     1.981000000    -9.521000000
H     1.466000000     2.448000000   -10.331000000
H     0.869000000     1.507000000    -9.308000000
O     2.723000000    -0.141000000    -7.608000000
H     2.316000000    -0.905000000    -8.018000000
H     2.460000000     0.595000000    -8.159000000
O     5.326000000     0.199000000    -6.862000000
H     5.231000000     0.014000000    -5.927000000
H     4.430000000     0.195000000    -7.198000000
O    -0.788000000     1.424000000    -8.648000000
H    -1.634000000     1.843000000    -8.808000000
H    -0.985000000     0.708000000    -8.044000000
O     5.692000000    -2.926000000    -5.952000000
H     4.948000000    -2.334000000    -6.063000000
H     5.399000000    -3.558000000    -5.296000000
O    -0.051000000    -6.326000000    -2.160000000
H     0.570000000    -5.620000000    -2.334000000
H    -0.837000000    -6.079000000    -2.648000000
O    -2.043000000    -1.846000000    -9.660000000
H    -1.660000000    -1.853000000    -8.783000000
H    -2.749000000    -1.201000000    -9.608000000
O    -1.330000000    -3.714000000    -3.641000000
H    -0.599000000    -3.119000000    -3.474000000
H    -2.090000000    -3.140000000    -3.731000000
O     1.266000000    -3.129000000    -6.142000000
H     1.045000000    -2.900000000    -5.240000000
H     2.222000000    -3.076000000    -6.175000000
