215
-1452.44670
C    -4.831000000    -0.805000000    -1.872000000
H    -4.742000000     0.269000000    -2.011000000
C    -4.571000000    -1.270000000    -0.559000000
C    -4.689000000    -2.628000000    -0.390000000
H    -4.535000000    -2.998000000     0.621000000
C    -4.324000000    -0.303000000     0.611000000
O    -4.776000000     0.971000000     0.413000000
H    -3.239000000    -0.254000000     0.786000000
O    -4.907000000    -0.772000000     1.835000000
C    -3.970000000    -0.722000000     2.846000000
C    -3.267000000    -1.929000000     3.140000000
H    -3.533000000    -2.825000000     2.583000000
C    -2.052000000    -1.787000000     3.817000000
O    -1.199000000    -2.834000000     3.751000000
C    -1.778000000    -0.556000000     4.477000000
C    -0.653000000    -0.487000000     5.450000000
H    -0.854000000     0.268000000     6.212000000
C     0.589000000    -0.090000000     4.744000000
C     0.957000000     1.290000000     4.731000000
H     0.421000000     1.956000000     5.402000000
H    -0.483000000    -1.472000000     5.890000000
C    -2.613000000     0.533000000     4.262000000
H    -2.406000000     1.496000000     4.723000000
C    -3.656000000     0.517000000     3.352000000
C    -4.442000000     1.754000000     3.141000000
H    -4.369000000     2.340000000     4.060000000
H    -5.487000000     1.584000000     2.874000000
C    -3.786000000     2.529000000     1.969000000
C    -2.875000000     3.570000000     2.225000000
H    -2.627000000     3.812000000     3.255000000
C    -3.989000000     2.077000000     0.669000000
C    -3.436000000     2.647000000    -0.402000000
H    -3.787000000     2.459000000    -1.414000000
C    -2.459000000     3.661000000    -0.241000000
O    -1.882000000     4.297000000    -1.332000000
C    -0.500000000     3.969000000    -1.643000000
C    -0.235000000     3.829000000    -3.132000000
C     0.993000000     4.168000000    -3.672000000
H     1.772000000     4.668000000    -3.102000000
C    -1.134000000     2.986000000    -3.805000000
H    -1.913000000     2.498000000    -3.226000000
O     0.294000000     4.976000000    -1.059000000
H    -0.208000000     2.979000000    -1.262000000
C    -2.226000000     4.117000000     1.114000000
C    -1.258000000     5.269000000     1.341000000
H    -1.454000000     5.731000000     2.311000000
H    -1.335000000     6.051000000     0.583000000
C     0.185000000     4.802000000     1.319000000
C     0.658000000     4.322000000     2.530000000
H     0.044000000     4.346000000     3.427000000
C     0.941000000     4.717000000     0.130000000
C     2.192000000     4.124000000     0.184000000
H     2.764000000     3.867000000    -0.703000000
C     2.739000000     3.739000000     1.420000000
O     3.848000000     3.004000000     1.312000000
C     3.684000000     1.599000000     1.289000000
C     4.688000000     1.055000000     0.282000000
C     4.712000000     1.393000000    -1.086000000
H     4.035000000     2.182000000    -1.404000000
C     5.467000000    -0.099000000     0.641000000
H     5.466000000    -0.529000000     1.639000000
O     3.869000000     1.297000000     2.679000000
H     2.640000000     1.405000000     1.004000000
C     1.971000000     3.892000000     2.622000000
C     2.353000000     3.235000000     3.981000000
H     1.868000000     3.856000000     4.737000000
H     3.430000000     3.354000000     4.116000000
C     2.009000000     1.778000000     4.012000000
C     2.793000000     0.856000000     3.342000000
C     2.456000000    -0.487000000     3.237000000
H     3.078000000    -1.096000000     2.587000000
C     1.363000000    -0.952000000     3.945000000
O     1.064000000    -2.247000000     3.758000000
C    -0.014000000    -2.638000000     2.914000000
H    -0.133000000    -1.817000000     2.191000000
C     0.376000000    -3.940000000     2.123000000
C    -0.555000000    -4.821000000     1.636000000
H    -1.628000000    -4.727000000     1.784000000
C     1.715000000    -4.009000000     1.708000000
H     2.461000000    -3.246000000     1.917000000
C     2.138000000    -5.097000000     0.935000000
O     3.468000000    -5.317000000     0.660000000
C     1.224000000    -6.065000000     0.471000000
H     1.709000000    -6.848000000    -0.107000000
C    -0.142000000    -5.834000000     0.749000000
O    -0.950000000    -6.874000000     0.393000000
C    -2.306000000    -6.810000000     0.367000000
C    -2.955000000    -5.879000000    -0.465000000
H    -2.381000000    -5.272000000    -1.160000000
C    -3.067000000    -7.718000000     1.083000000
H    -2.467000000    -8.411000000     1.667000000
C    -4.426000000    -7.691000000     1.071000000
H    -5.035000000    -8.448000000     1.558000000
C    -4.994000000    -6.700000000     0.341000000
H    -6.080000000    -6.659000000     0.388000000
C    -4.283000000    -5.747000000    -0.449000000
O    -4.902000000    -4.903000000    -1.280000000
C    -4.816000000    -3.549000000    -1.461000000
C    -5.045000000    -3.051000000    -2.738000000
H    -5.121000000    -3.764000000    -3.555000000
C    -5.000000000    -1.666000000    -2.969000000
O    -5.091000000    -1.181000000    -4.213000000
C    -4.774000000     0.118000000    -4.578000000
C    -3.519000000     0.291000000    -5.112000000
H    -2.782000000    -0.501000000    -5.224000000
C    -5.674000000     1.172000000    -4.401000000
H    -6.698000000     0.913000000    -4.144000000
C    -5.245000000     2.420000000    -4.801000000
H    -5.964000000     3.226000000    -4.679000000
C    -3.963000000     2.579000000    -5.373000000
H    -3.499000000     3.545000000    -5.552000000
C    -3.103000000     1.494000000    -5.508000000
O    -1.760000000     1.705000000    -5.789000000
C    -0.905000000     2.574000000    -5.116000000
C     0.252000000     3.074000000    -5.734000000
H     0.559000000     2.706000000    -6.709000000
C     1.144000000     3.838000000    -5.009000000
O     2.327000000     4.206000000    -5.636000000
C     3.575000000     3.886000000    -5.084000000
C     3.738000000     2.626000000    -4.441000000
H     2.906000000     1.931000000    -4.358000000
C     4.567000000     4.823000000    -5.088000000
H     4.397000000     5.765000000    -5.603000000
C     5.806000000     4.442000000    -4.620000000
H     6.641000000     5.111000000    -4.813000000
C     5.976000000     3.207000000    -3.931000000
H     6.909000000     2.811000000    -3.538000000
C     4.901000000     2.360000000    -3.722000000
O     5.199000000     1.100000000    -3.277000000
C     5.326000000     0.689000000    -2.017000000
C     6.064000000    -0.474000000    -1.705000000
H     6.625000000    -1.037000000    -2.447000000
C     6.101000000    -0.836000000    -0.394000000
O     6.858000000    -1.943000000    -0.069000000
C     6.289000000    -2.994000000     0.692000000
C     6.734000000    -3.242000000     2.002000000
H     7.612000000    -2.668000000     2.289000000
C     6.207000000    -4.218000000     2.811000000
H     6.569000000    -4.303000000     3.833000000
C     5.162000000    -5.055000000     2.344000000
H     4.642000000    -5.835000000     2.895000000
C     4.536000000    -4.649000000     1.153000000
C     5.125000000    -3.680000000     0.342000000
H     4.620000000    -3.399000000    -0.579000000
C    -0.746000000    -0.394000000    -2.528000000
H    -1.462000000    -0.385000000    -3.346000000
C    -1.085000000     0.283000000    -1.371000000
H    -2.100000000     0.633000000    -1.205000000
C    -0.134000000     0.374000000    -0.314000000
H    -0.285000000     0.883000000     0.632000000
C     1.079000000    -0.295000000    -0.434000000
H     1.727000000    -0.336000000     0.438000000
C     1.380000000    -0.967000000    -1.588000000
H     2.313000000    -1.522000000    -1.635000000
C     0.504000000    -0.964000000    -2.717000000
C     0.893000000    -1.604000000    -4.064000000
O     2.074000000    -1.963000000    -4.237000000
O     0.121000000    -1.472000000    -5.020000000
O    -3.092000000    -2.851000000    -8.606000000
H    -3.487000000    -1.984000000    -8.514000000
H    -2.217000000    -2.755000000    -8.230000000
O     4.169000000    -3.368000000    -3.273000000
H     3.558000000    -2.689000000    -3.557000000
H     3.694000000    -4.188000000    -3.403000000
O     1.012000000    -0.048000000    -7.051000000
H     1.838000000     0.303000000    -6.718000000
H     0.708000000    -0.640000000    -6.362000000
O     6.280000000    -0.757000000    -6.063000000
H     7.209000000    -0.745000000    -6.291000000
H     6.013000000    -1.668000000    -6.192000000
O     1.042000000    -3.156000000    -8.366000000
H     1.771000000    -2.756000000    -7.891000000
H     0.345000000    -3.232000000    -7.715000000
O    -1.022000000     0.459000000    -8.781000000
H    -1.736000000     0.104000000    -8.252000000
H    -0.267000000     0.463000000    -8.193000000
O    -3.875000000    -4.738000000    -5.899000000
H    -3.341000000    -4.091000000    -6.360000000
H    -4.778000000    -4.480000000    -6.084000000
O     6.842000000    -3.521000000    -3.293000000
H     7.026000000    -3.560000000    -4.231000000
H     5.892000000    -3.624000000    -3.231000000
O     2.047000000    -7.223000000    -5.449000000
H     2.808000000    -7.455000000    -5.981000000
H     2.371000000    -6.555000000    -4.845000000
O     3.753000000     0.154000000    -6.260000000
H     3.628000000    -0.021000000    -5.327000000
H     4.697000000     0.073000000    -6.394000000
O     1.867000000    -5.381000000    -2.978000000
H     1.030000000    -5.794000000    -2.765000000
H     1.894000000    -4.597000000    -2.429000000
O     4.806000000    -4.665000000    -7.886000000
H     4.244000000    -4.019000000    -7.458000000
H     4.929000000    -4.326000000    -8.772000000
O    -3.100000000    -6.635000000    -4.100000000
H    -3.984000000    -6.981000000    -3.975000000
H    -3.227000000    -5.827000000    -4.597000000
O    -0.615000000    -6.386000000    -2.729000000
H    -1.358000000    -6.315000000    -3.328000000
H    -0.913000000    -6.990000000    -2.048000000
O     3.666000000     1.695000000    -8.639000000
H     3.491000000     1.199000000    -7.839000000
H     4.620000000     1.740000000    -8.690000000
O     3.369000000    -2.521000000    -6.701000000
H     3.423000000    -1.570000000    -6.794000000
H     3.031000000    -2.656000000    -5.816000000
O     0.626000000    -1.394000000   -10.350000000
H     0.874000000    -1.969000000    -9.626000000
H    -0.068000000    -0.842000000    -9.989000000
O    -0.085000000    -5.749000000    -6.889000000
H    -0.667000000    -6.357000000    -7.344000000
H     0.429000000    -6.304000000    -6.302000000
O    -1.079000000    -3.174000000    -6.764000000
H    -1.116000000    -4.021000000    -6.319000000
H    -0.931000000    -2.541000000    -6.062000000
