215
-1464.94626
C    -5.750000000     0.212000000    -1.026000000
H    -5.704000000     1.297000000    -0.983000000
C    -5.196000000    -0.563000000    -0.032000000
C    -5.167000000    -1.968000000    -0.180000000
H    -4.748000000    -2.630000000     0.574000000
C    -4.443000000     0.130000000     1.085000000
O    -4.766000000     1.542000000     1.079000000
H    -3.419000000     0.053000000     0.691000000
O    -4.546000000    -0.474000000     2.312000000
C    -3.420000000    -0.486000000     3.089000000
C    -2.632000000    -1.620000000     2.960000000
H    -2.934000000    -2.354000000     2.217000000
C    -1.427000000    -1.814000000     3.725000000
O    -0.777000000    -3.005000000     3.609000000
C    -1.086000000    -0.814000000     4.629000000
C     0.155000000    -0.873000000     5.525000000
H     0.062000000    -0.195000000     6.377000000
C     1.444000000    -0.635000000     4.756000000
C     2.067000000     0.632000000     4.704000000
H     1.571000000     1.445000000     5.229000000
H     0.196000000    -1.905000000     5.879000000
C    -1.829000000     0.417000000     4.655000000
H    -1.422000000     1.276000000     5.181000000
C    -2.968000000     0.548000000     3.854000000
C    -3.636000000     1.861000000     3.835000000
H    -3.455000000     2.509000000     4.696000000
H    -4.720000000     1.730000000     3.865000000
C    -3.212000000     2.671000000     2.672000000
C    -2.169000000     3.605000000     2.816000000
H    -1.699000000     3.730000000     3.788000000
C    -3.712000000     2.446000000     1.378000000
C    -3.216000000     3.183000000     0.281000000
H    -3.590000000     2.872000000    -0.691000000
C    -2.168000000     4.080000000     0.445000000
O    -1.499000000     4.621000000    -0.635000000
C    -0.325000000     4.012000000    -1.151000000
C    -0.388000000     3.936000000    -2.679000000
C     0.634000000     4.295000000    -3.544000000
H     1.555000000     4.750000000    -3.187000000
C    -1.475000000     3.272000000    -3.212000000
H    -2.181000000     2.922000000    -2.464000000
O     0.789000000     4.705000000    -0.662000000
H    -0.252000000     2.978000000    -0.785000000
C    -1.679000000     4.358000000     1.728000000
C    -0.394000000     5.156000000     1.967000000
H    -0.456000000     5.597000000     2.964000000
H    -0.372000000     6.007000000     1.284000000
C     0.885000000     4.330000000     1.808000000
C     1.670000000     3.774000000     2.866000000
H     1.242000000     3.843000000     3.862000000
C     1.445000000     4.274000000     0.510000000
C     2.616000000     3.571000000     0.274000000
H     2.948000000     3.559000000    -0.761000000
C     3.291000000     2.964000000     1.307000000
O     4.340000000     2.169000000     0.923000000
C     4.208000000     0.763000000     0.907000000
C     4.898000000     0.179000000    -0.345000000
C     4.567000000     0.741000000    -1.628000000
H     4.104000000     1.724000000    -1.644000000
C     5.443000000    -1.144000000    -0.330000000
H     5.555000000    -1.718000000     0.586000000
O     4.704000000     0.223000000     2.144000000
H     3.133000000     0.578000000     0.769000000
C     2.842000000     3.052000000     2.659000000
C     3.614000000     2.373000000     3.728000000
H     3.345000000     2.869000000     4.663000000
H     4.699000000     2.369000000     3.609000000
C     3.158000000     0.924000000     3.910000000
C     3.759000000    -0.092000000     3.151000000
C     3.129000000    -1.350000000     3.111000000
H     3.567000000    -2.220000000     2.629000000
C     2.043000000    -1.627000000     3.906000000
O     1.567000000    -2.888000000     3.821000000
C     0.424000000    -3.121000000     2.919000000
H     0.478000000    -2.272000000     2.222000000
C     0.661000000    -4.369000000     2.029000000
C    -0.392000000    -4.582000000     1.127000000
H    -1.271000000    -3.988000000     1.364000000
C     1.855000000    -4.981000000     1.852000000
H     2.723000000    -4.581000000     2.369000000
C     1.955000000    -5.897000000     0.841000000
O     3.199000000    -6.388000000     0.499000000
C     0.854000000    -6.274000000     0.089000000
H     0.987000000    -7.064000000    -0.646000000
C    -0.307000000    -5.513000000     0.125000000
O    -1.306000000    -5.674000000    -0.817000000
C    -2.627000000    -5.555000000    -0.447000000
C    -3.491000000    -4.670000000    -1.044000000
H    -3.137000000    -3.933000000    -1.760000000
C    -3.115000000    -6.558000000     0.385000000
H    -2.444000000    -7.326000000     0.762000000
C    -4.462000000    -6.522000000     0.699000000
H    -4.733000000    -7.237000000     1.472000000
C    -5.400000000    -5.727000000     0.016000000
H    -6.471000000    -5.783000000     0.193000000
C    -4.871000000    -4.793000000    -0.877000000
O    -5.702000000    -3.974000000    -1.541000000
C    -5.707000000    -2.544000000    -1.392000000
C    -6.173000000    -1.705000000    -2.415000000
H    -6.663000000    -2.101000000    -3.301000000
C    -6.227000000    -0.350000000    -2.185000000
O    -6.795000000     0.506000000    -3.108000000
C    -5.999000000     1.493000000    -3.608000000
C    -4.677000000     1.298000000    -4.075000000
H    -4.194000000     0.326000000    -4.010000000
C    -6.583000000     2.728000000    -3.587000000
H    -7.561000000     2.803000000    -3.119000000
C    -5.938000000     3.828000000    -4.145000000
H    -6.411000000     4.801000000    -4.033000000
C    -4.605000000     3.616000000    -4.559000000
H    -3.996000000     4.449000000    -4.901000000
C    -4.021000000     2.373000000    -4.621000000
O    -2.709000000     2.266000000    -4.992000000
C    -1.626000000     3.012000000    -4.542000000
C    -0.606000000     3.323000000    -5.394000000
H    -0.654000000     3.016000000    -6.436000000
C     0.599000000     3.921000000    -4.888000000
O     1.706000000     4.083000000    -5.664000000
C     2.957000000     3.643000000    -5.204000000
C     3.285000000     2.310000000    -5.068000000
H     2.579000000     1.508000000    -5.263000000
C     3.901000000     4.612000000    -4.949000000
H     3.616000000     5.640000000    -5.160000000
C     5.089000000     4.306000000    -4.295000000
H     5.774000000     5.099000000    -4.006000000
C     5.424000000     3.019000000    -4.068000000
H     6.340000000     2.773000000    -3.537000000
C     4.477000000     1.968000000    -4.397000000
O     4.752000000     0.670000000    -4.096000000
C     4.974000000     0.158000000    -2.838000000
C     5.605000000    -1.115000000    -2.716000000
H     5.926000000    -1.549000000    -3.659000000
C     5.782000000    -1.828000000    -1.547000000
O     6.146000000    -3.181000000    -1.541000000
C     5.823000000    -4.066000000    -0.574000000
C     6.717000000    -4.174000000     0.509000000
H     7.549000000    -3.487000000     0.643000000
C     6.410000000    -5.099000000     1.489000000
H     7.102000000    -5.170000000     2.325000000
C     5.205000000    -5.815000000     1.419000000
H     4.910000000    -6.526000000     2.186000000
C     4.301000000    -5.618000000     0.384000000
C     4.574000000    -4.635000000    -0.591000000
H     3.872000000    -4.491000000    -1.408000000
C    -1.773000000    -1.092000000    -2.621000000
H    -2.570000000    -1.186000000    -3.355000000
C    -1.781000000    -0.045000000    -1.717000000
H    -2.498000000     0.759000000    -1.859000000
C    -0.799000000     0.076000000    -0.754000000
H    -0.833000000     0.891000000    -0.009000000
C     0.068000000    -1.028000000    -0.632000000
H     0.782000000    -0.873000000     0.173000000
C     0.070000000    -2.148000000    -1.451000000
H     0.741000000    -2.995000000    -1.337000000
C    -0.857000000    -2.162000000    -2.490000000
C    -0.926000000    -3.323000000    -3.491000000
O    -0.212000000    -4.290000000    -3.396000000
O    -1.629000000    -3.276000000    -4.466000000
O     2.899000000    -4.615000000    -3.918000000
H     2.099000000    -4.502000000    -3.404000000
H     3.284000000    -5.426000000    -3.587000000
O    -0.582000000    -0.584000000    -5.604000000
H     0.359000000    -0.759000000    -5.597000000
H    -0.921000000    -1.071000000    -4.853000000
O    -0.562000000     0.999000000    -7.802000000
H     0.391000000     0.995000000    -7.880000000
H    -0.737000000     0.538000000    -6.981000000
O    -2.850000000    -0.800000000    -8.263000000
H    -2.520000000    -1.640000000    -7.944000000
H    -2.093000000    -0.387000000    -8.679000000
O    -3.444000000    -5.685000000    -7.442000000
H    -2.835000000    -6.040000000    -6.794000000
H    -4.066000000    -6.395000000    -7.601000000
O    -3.830000000    -7.390000000    -3.411000000
H    -4.248000000    -7.422000000    -2.550000000
H    -3.822000000    -6.460000000    -3.638000000
O     1.295000000    -8.110000000    -5.283000000
H     1.318000000    -7.465000000    -5.989000000
H     0.806000000    -7.679000000    -4.581000000
O     2.076000000    -1.539000000    -5.272000000
H     2.965000000    -1.479000000    -4.923000000
H     2.034000000    -2.408000000    -5.672000000
O    -1.296000000    -6.330000000    -5.358000000
H    -1.731000000    -7.124000000    -5.048000000
H    -0.905000000    -5.949000000    -4.572000000
O     4.311000000    -4.436000000    -6.409000000
H     3.882000000    -4.246000000    -5.575000000
H     3.652000000    -4.228000000    -7.071000000
O    -3.765000000    -4.905000000    -4.541000000
H    -2.890000000    -4.575000000    -4.744000000
H    -4.345000000    -4.426000000    -5.133000000
O     2.416000000    -4.055000000    -8.363000000
H     2.141000000    -4.558000000    -9.130000000
H     1.764000000    -3.359000000    -8.287000000
O     0.081000000    -7.302000000    -3.021000000
H    -0.489000000    -6.718000000    -2.522000000
H    -0.127000000    -8.177000000    -2.694000000
O     2.270000000     0.183000000    -7.762000000
H     2.438000000    -0.538000000    -7.156000000
H     3.016000000     0.772000000    -7.649000000
O     0.531000000    -4.060000000    -6.079000000
H    -0.361000000    -3.981000000    -5.739000000
H     1.050000000    -4.339000000    -5.325000000
O     3.405000000    -7.179000000    -3.126000000
H     2.606000000    -7.612000000    -3.426000000
H     3.730000000    -7.738000000    -2.420000000
O     0.056000000    -2.030000000    -8.515000000
H    -0.147000000    -2.674000000    -7.836000000
H     0.236000000    -1.223000000    -8.033000000
O     0.602000000    -6.396000000    -7.676000000
H     1.381000000    -5.841000000    -7.655000000
H    -0.009000000    -5.974000000    -7.072000000
O    -2.310000000    -3.119000000    -7.215000000
H    -2.986000000    -3.779000000    -7.370000000
H    -2.134000000    -3.173000000    -6.276000000
