215
-1446.97560
C    -5.260000000    -0.904000000    -1.684000000
H    -5.563000000     0.129000000    -1.833000000
C    -4.679000000    -1.525000000    -0.558000000
C    -4.407000000    -2.875000000    -0.575000000
H    -3.888000000    -3.394000000     0.226000000
C    -4.213000000    -0.708000000     0.615000000
O    -4.946000000     0.505000000     0.672000000
H    -3.174000000    -0.446000000     0.368000000
O    -4.260000000    -1.487000000     1.816000000
C    -3.233000000    -1.368000000     2.723000000
C    -2.470000000    -2.451000000     2.896000000
H    -2.677000000    -3.378000000     2.368000000
C    -1.365000000    -2.424000000     3.797000000
O    -0.335000000    -3.363000000     3.738000000
C    -1.193000000    -1.271000000     4.615000000
C     0.001000000    -1.029000000     5.518000000
H    -0.336000000    -0.435000000     6.370000000
C     1.275000000    -0.470000000     4.808000000
C     1.447000000     0.940000000     4.828000000
H     0.702000000     1.558000000     5.322000000
H     0.287000000    -2.010000000     5.903000000
C    -2.049000000    -0.161000000     4.399000000
H    -1.871000000     0.748000000     4.967000000
C    -3.095000000    -0.255000000     3.500000000
C    -4.156000000     0.871000000     3.506000000
H    -4.214000000     1.445000000     4.433000000
H    -5.144000000     0.423000000     3.380000000
C    -3.860000000     1.855000000     2.375000000
C    -3.233000000     3.071000000     2.656000000
H    -2.836000000     3.204000000     3.660000000
C    -4.278000000     1.634000000     1.046000000
C    -4.068000000     2.640000000     0.056000000
H    -4.299000000     2.402000000    -0.979000000
C    -3.262000000     3.776000000     0.294000000
O    -2.742000000     4.518000000    -0.787000000
C    -1.387000000     4.189000000    -1.144000000
C    -1.101000000     4.018000000    -2.608000000
C     0.045000000     4.505000000    -3.242000000
H     0.816000000     5.030000000    -2.683000000
C    -2.032000000     3.265000000    -3.293000000
H    -2.763000000     2.717000000    -2.705000000
O    -0.479000000     5.162000000    -0.495000000
H    -1.181000000     3.169000000    -0.788000000
C    -2.828000000     3.934000000     1.615000000
C    -1.740000000     4.993000000     1.894000000
H    -1.825000000     5.312000000     2.935000000
H    -1.948000000     5.860000000     1.264000000
C    -0.367000000     4.516000000     1.729000000
C     0.250000000     3.795000000     2.740000000
H    -0.215000000     3.682000000     3.716000000
C     0.252000000     4.674000000     0.526000000
C     1.536000000     4.137000000     0.312000000
H     2.086000000     4.310000000    -0.610000000
C     2.222000000     3.556000000     1.376000000
O     3.457000000     3.045000000     1.089000000
C     3.587000000     1.587000000     1.158000000
C     4.500000000     1.096000000     0.037000000
C     4.312000000     1.629000000    -1.248000000
H     3.544000000     2.342000000    -1.535000000
C     5.391000000     0.058000000     0.214000000
H     5.538000000    -0.318000000     1.223000000
O     4.138000000     1.226000000     2.380000000
H     2.578000000     1.157000000     1.071000000
C     1.597000000     3.445000000     2.601000000
C     2.394000000     3.037000000     3.790000000
H     1.933000000     3.479000000     4.676000000
H     3.395000000     3.457000000     3.671000000
C     2.440000000     1.530000000     4.033000000
C     3.365000000     0.645000000     3.382000000
C     3.150000000    -0.743000000     3.358000000
H     3.832000000    -1.320000000     2.738000000
C     2.108000000    -1.269000000     4.038000000
O     1.897000000    -2.636000000     3.817000000
C     0.818000000    -3.077000000     2.941000000
H     0.615000000    -2.281000000     2.209000000
C     1.305000000    -4.195000000     2.160000000
C     0.372000000    -4.932000000     1.470000000
H    -0.673000000    -4.819000000     1.746000000
C     2.652000000    -4.336000000     1.798000000
H     3.387000000    -3.707000000     2.293000000
C     3.049000000    -5.246000000     0.748000000
O     4.413000000    -5.384000000     0.416000000
C     2.049000000    -5.846000000    -0.015000000
H     2.298000000    -6.458000000    -0.878000000
C     0.711000000    -5.739000000     0.386000000
O    -0.151000000    -6.283000000    -0.452000000
C    -1.457000000    -6.278000000    -0.245000000
C    -2.248000000    -5.553000000    -1.117000000
H    -1.884000000    -4.979000000    -1.965000000
C    -1.907000000    -7.078000000     0.817000000
H    -1.267000000    -7.660000000     1.475000000
C    -3.310000000    -7.211000000     0.918000000
H    -3.773000000    -7.802000000     1.704000000
C    -4.099000000    -6.377000000     0.178000000
H    -5.175000000    -6.488000000     0.291000000
C    -3.604000000    -5.626000000    -0.894000000
O    -4.458000000    -4.944000000    -1.767000000
C    -4.738000000    -3.642000000    -1.691000000
C    -5.182000000    -3.027000000    -2.853000000
H    -5.159000000    -3.627000000    -3.759000000
C    -5.504000000    -1.651000000    -2.818000000
O    -5.841000000    -1.144000000    -4.087000000
C    -5.506000000     0.161000000    -4.414000000
C    -4.151000000     0.500000000    -4.535000000
H    -3.386000000    -0.247000000    -4.338000000
C    -6.522000000     1.104000000    -4.402000000
H    -7.564000000     0.800000000    -4.366000000
C    -6.238000000     2.386000000    -4.922000000
H    -7.048000000     3.099000000    -5.052000000
C    -4.934000000     2.694000000    -5.340000000
H    -4.714000000     3.684000000    -5.731000000
C    -3.873000000     1.774000000    -5.092000000
O    -2.556000000     2.050000000    -5.382000000
C    -1.724000000     2.949000000    -4.655000000
C    -0.695000000     3.472000000    -5.331000000
H    -0.539000000     3.182000000    -6.367000000
C     0.204000000     4.179000000    -4.583000000
O     1.387000000     4.535000000    -5.201000000
C     2.587000000     4.288000000    -4.806000000
C     3.021000000     3.061000000    -4.271000000
H     2.289000000     2.269000000    -4.137000000
C     3.528000000     5.331000000    -5.017000000
H     3.160000000     6.270000000    -5.422000000
C     4.816000000     5.076000000    -4.692000000
H     5.530000000     5.871000000    -4.893000000
C     5.213000000     3.867000000    -4.093000000
H     6.261000000     3.695000000    -3.862000000
C     4.288000000     2.884000000    -3.861000000
O     4.728000000     1.624000000    -3.554000000
C     4.988000000     1.136000000    -2.346000000
C     5.900000000     0.150000000    -2.106000000
H     6.586000000    -0.200000000    -2.873000000
C     6.116000000    -0.417000000    -0.868000000
O     7.000000000    -1.520000000    -0.729000000
C     6.725000000    -2.581000000     0.179000000
C     7.515000000    -2.817000000     1.314000000
H     8.281000000    -2.079000000     1.535000000
C     7.228000000    -3.814000000     2.227000000
H     7.631000000    -3.744000000     3.234000000
C     6.190000000    -4.702000000     1.944000000
H     5.876000000    -5.476000000     2.639000000
C     5.418000000    -4.534000000     0.766000000
C     5.632000000    -3.411000000    -0.078000000
H     5.074000000    -3.232000000    -0.993000000
C    -0.175000000     0.614000000    -1.683000000
H    -0.748000000     1.251000000    -2.352000000
C    -0.446000000     0.721000000    -0.282000000
H    -1.244000000     1.334000000     0.129000000
C     0.328000000     0.046000000     0.635000000
H     0.269000000     0.247000000     1.683000000
C     1.314000000    -0.800000000     0.146000000
H     1.952000000    -1.370000000     0.817000000
C     1.571000000    -0.996000000    -1.190000000
H     2.469000000    -1.565000000    -1.417000000
C     0.860000000    -0.261000000    -2.154000000
C     1.134000000    -0.426000000    -3.591000000
O     1.796000000    -1.371000000    -4.009000000
O     0.520000000     0.249000000    -4.379000000
O    -2.717000000    -1.792000000    -8.199000000
H    -3.636000000    -1.928000000    -7.966000000
H    -2.260000000    -1.758000000    -7.359000000
O     4.029000000    -2.894000000    -3.428000000
H     3.340000000    -2.233000000    -3.488000000
H     3.560000000    -3.717000000    -3.289000000
O     1.276000000     0.853000000    -6.834000000
H     1.725000000     0.023000000    -6.995000000
H     0.973000000     0.791000000    -5.929000000
O     5.338000000    -1.203000000    -5.509000000
H     6.295000000    -1.216000000    -5.535000000
H     5.114000000    -1.674000000    -4.706000000
O     0.711000000    -3.042000000    -7.697000000
H     1.331000000    -2.317000000    -7.622000000
H     1.252000000    -3.829000000    -7.622000000
O    -1.290000000     1.282000000    -8.076000000
H    -1.757000000     1.006000000    -7.288000000
H    -0.367000000     1.278000000    -7.822000000
O     3.304000000    -5.811000000    -3.517000000
H     4.009000000    -6.218000000    -3.013000000
H     3.130000000    -6.428000000    -4.227000000
O    -3.369000000    -4.703000000    -7.484000000
H    -2.929000000    -4.718000000    -6.634000000
H    -3.928000000    -3.927000000    -7.451000000
O     6.410000000    -5.242000000    -3.828000000
H     6.016000000    -5.975000000    -4.302000000
H     5.738000000    -4.560000000    -3.841000000
O     2.895000000    -1.422000000    -6.532000000
H     2.365000000    -1.524000000    -5.742000000
H     3.765000000    -1.187000000    -6.207000000
O     0.313000000    -3.536000000    -4.018000000
H     0.932000000    -4.088000000    -3.540000000
H     0.730000000    -2.675000000    -4.045000000
O     1.274000000    -5.909000000    -6.762000000
H     2.123000000    -5.949000000    -6.321000000
H     0.948000000    -6.809000000    -6.735000000
O     5.283000000     1.231000000    -7.180000000
H     6.083000000     1.629000000    -6.837000000
H     5.156000000     0.448000000    -6.643000000
O     3.097000000     3.091000000    -7.964000000
H     2.538000000     2.765000000    -7.258000000
H     3.894000000     2.564000000    -7.899000000
O     3.963000000    -4.251000000    -6.054000000
H     4.209000000    -3.327000000    -6.081000000
H     3.139000000    -4.266000000    -5.567000000
O    -0.275000000    -1.159000000    -9.748000000
H     0.132000000    -1.558000000    -8.979000000
H    -1.131000000    -0.861000000    -9.438000000
O    -1.263000000    -4.983000000    -5.757000000
H    -0.616000000    -5.065000000    -6.457000000
H    -0.841000000    -4.424000000    -5.105000000
O    -0.787000000    -1.239000000    -6.022000000
H    -0.169000000    -1.970000000    -6.054000000
H    -0.355000000    -0.584000000    -5.474000000
O     5.870000000     4.060000000    -1.018000000
H     6.822000000     3.989000000    -1.090000000
H     5.556000000     3.159000000    -1.091000000
