215
-1463.49345
C    -4.945000000     0.057000000    -1.623000000
H    -5.078000000     1.135000000    -1.571000000
C    -4.408000000    -0.669000000    -0.559000000
C    -4.053000000    -2.087000000    -0.797000000
H    -3.509000000    -2.601000000    -0.009000000
C    -3.924000000    -0.041000000     0.727000000
O    -4.570000000     1.259000000     0.814000000
H    -2.828000000     0.045000000     0.692000000
O    -4.348000000    -0.798000000     1.937000000
C    -3.417000000    -0.932000000     2.934000000
C    -2.791000000    -2.142000000     3.020000000
H    -3.032000000    -2.884000000     2.263000000
C    -1.865000000    -2.335000000     4.010000000
O    -1.062000000    -3.490000000     3.995000000
C    -1.507000000    -1.347000000     4.921000000
C    -0.226000000    -1.394000000     5.694000000
H    -0.294000000    -0.655000000     6.495000000
C     1.030000000    -1.069000000     4.869000000
C     1.482000000     0.274000000     4.843000000
H     1.023000000     0.994000000     5.516000000
H    -0.101000000    -2.398000000     6.105000000
C    -2.107000000    -0.092000000     4.738000000
H    -1.732000000     0.732000000     5.340000000
C    -3.055000000     0.125000000     3.741000000
C    -3.685000000     1.489000000     3.677000000
H    -3.571000000     2.036000000     4.615000000
H    -4.771000000     1.425000000     3.584000000
C    -3.240000000     2.346000000     2.510000000
C    -2.347000000     3.367000000     2.885000000
H    -1.919000000     3.572000000     3.863000000
C    -3.782000000     2.236000000     1.254000000
C    -3.247000000     3.096000000     0.253000000
H    -3.612000000     3.086000000    -0.771000000
C    -2.231000000     4.017000000     0.544000000
O    -1.709000000     4.758000000    -0.493000000
C    -0.366000000     4.362000000    -0.993000000
C    -0.216000000     4.367000000    -2.541000000
C     0.957000000     4.734000000    -3.115000000
H     1.776000000     5.088000000    -2.494000000
C    -1.316000000     4.045000000    -3.367000000
H    -2.292000000     3.885000000    -2.916000000
O     0.674000000     5.185000000    -0.339000000
H    -0.190000000     3.296000000    -0.788000000
C    -1.817000000     4.180000000     1.872000000
C    -0.719000000     5.196000000     2.264000000
H    -0.784000000     5.556000000     3.293000000
H    -0.765000000     6.125000000     1.692000000
C     0.669000000     4.553000000     1.992000000
C     1.268000000     3.850000000     3.056000000
H     0.745000000     3.754000000     4.004000000
C     1.314000000     4.600000000     0.712000000
C     2.508000000     3.915000000     0.534000000
H     2.954000000     3.886000000    -0.456000000
C     3.047000000     3.196000000     1.611000000
O     4.083000000     2.340000000     1.313000000
C     3.699000000     0.960000000     1.114000000
C     4.373000000     0.324000000    -0.112000000
C     4.589000000     1.103000000    -1.279000000
H     4.348000000     2.152000000    -1.130000000
C     4.571000000    -1.097000000    -0.310000000
H     4.425000000    -1.734000000     0.559000000
O     4.019000000     0.122000000     2.270000000
H     2.600000000     0.941000000     1.056000000
C     2.418000000     3.134000000     2.869000000
C     2.850000000     2.249000000     4.019000000
H     2.613000000     2.697000000     4.986000000
H     3.940000000     2.253000000     3.953000000
C     2.375000000     0.835000000     3.932000000
C     2.968000000    -0.129000000     3.075000000
C     2.693000000    -1.496000000     3.205000000
H     3.082000000    -2.247000000     2.522000000
C     1.679000000    -1.919000000     4.055000000
O     1.276000000    -3.181000000     3.821000000
C     0.127000000    -3.424000000     3.029000000
H     0.047000000    -2.573000000     2.337000000
C     0.347000000    -4.627000000     2.170000000
C    -0.743000000    -5.341000000     1.713000000
H    -1.758000000    -5.029000000     1.949000000
C     1.596000000    -4.969000000     1.749000000
H     2.392000000    -4.318000000     2.102000000
C     1.790000000    -6.134000000     1.060000000
O     3.076000000    -6.533000000     0.695000000
C     0.663000000    -6.918000000     0.732000000
H     0.855000000    -7.875000000     0.255000000
C    -0.631000000    -6.517000000     0.931000000
O    -1.785000000    -7.226000000     0.522000000
C    -2.892000000    -6.608000000    -0.040000000
C    -2.837000000    -5.464000000    -0.807000000
H    -1.896000000    -4.962000000    -1.018000000
C    -4.112000000    -7.220000000     0.211000000
H    -4.174000000    -8.082000000     0.871000000
C    -5.235000000    -6.705000000    -0.414000000
H    -6.204000000    -7.178000000    -0.274000000
C    -5.215000000    -5.641000000    -1.294000000
H    -6.092000000    -5.227000000    -1.784000000
C    -4.019000000    -4.991000000    -1.462000000
O    -3.962000000    -3.921000000    -2.302000000
C    -4.376000000    -2.675000000    -1.982000000
C    -4.757000000    -1.886000000    -3.072000000
H    -4.917000000    -2.377000000    -4.029000000
C    -5.019000000    -0.547000000    -2.923000000
O    -5.346000000     0.204000000    -3.991000000
C    -5.021000000     1.504000000    -4.184000000
C    -3.791000000     1.908000000    -4.530000000
H    -2.995000000     1.168000000    -4.510000000
C    -6.018000000     2.483000000    -4.075000000
H    -7.029000000     2.317000000    -3.711000000
C    -5.781000000     3.801000000    -4.496000000
H    -6.587000000     4.523000000    -4.391000000
C    -4.498000000     4.156000000    -4.979000000
H    -4.244000000     5.127000000    -5.397000000
C    -3.500000000     3.149000000    -4.970000000
O    -2.201000000     3.424000000    -5.500000000
C    -1.176000000     3.915000000    -4.754000000
C     0.069000000     4.273000000    -5.272000000
H     0.214000000     4.152000000    -6.342000000
C     1.103000000     4.607000000    -4.489000000
O     2.264000000     4.964000000    -5.183000000
C     3.440000000     4.362000000    -4.916000000
C     3.583000000     3.038000000    -4.455000000
H     2.757000000     2.379000000    -4.707000000
C     4.608000000     5.129000000    -4.855000000
H     4.622000000     6.173000000    -5.157000000
C     5.808000000     4.671000000    -4.342000000
H     6.661000000     5.345000000    -4.335000000
C     5.887000000     3.321000000    -3.940000000
H     6.766000000     2.847000000    -3.511000000
C     4.754000000     2.531000000    -3.898000000
O     4.891000000     1.172000000    -3.731000000
C     4.876000000     0.490000000    -2.539000000
C     5.067000000    -0.875000000    -2.627000000
H     5.438000000    -1.307000000    -3.553000000
C     5.016000000    -1.630000000    -1.467000000
O     5.489000000    -2.926000000    -1.493000000
C     5.446000000    -3.926000000    -0.547000000
C     6.316000000    -3.912000000     0.568000000
H     7.192000000    -3.271000000     0.514000000
C     6.124000000    -4.738000000     1.592000000
H     6.835000000    -4.691000000     2.413000000
C     5.010000000    -5.593000000     1.613000000
H     4.911000000    -6.230000000     2.489000000
C     4.179000000    -5.676000000     0.573000000
C     4.384000000    -4.791000000    -0.494000000
H     3.648000000    -4.806000000    -1.294000000
C    -0.155000000     0.318000000    -2.293000000
H    -0.644000000     0.961000000    -3.020000000
C    -0.425000000     0.571000000    -0.923000000
H    -1.143000000     1.314000000    -0.586000000
C     0.232000000    -0.248000000     0.022000000
H     0.203000000    -0.086000000     1.125000000
C     1.110000000    -1.268000000    -0.424000000
H     1.668000000    -1.891000000     0.271000000
C     1.413000000    -1.432000000    -1.773000000
H     2.064000000    -2.203000000    -2.178000000
C     0.787000000    -0.607000000    -2.719000000
C     1.161000000    -0.760000000    -4.178000000
O     1.816000000    -1.776000000    -4.445000000
O     0.662000000    -0.123000000    -5.075000000
O     3.194000000    -3.622000000    -5.607000000
H     2.619000000    -3.002000000    -5.158000000
H     3.812000000    -3.907000000    -4.933000000
O     3.172000000     2.298000000    -9.410000000
H     3.004000000     3.190000000    -9.108000000
H     2.541000000     1.760000000    -8.933000000
O     5.947000000    -2.387000000    -6.651000000
H     6.378000000    -1.798000000    -7.270000000
H     5.049000000    -2.060000000    -6.595000000
O    -2.049000000     2.765000000    -8.398000000
H    -1.786000000     3.677000000    -8.270000000
H    -1.224000000     2.280000000    -8.426000000
O    -4.503000000    -1.877000000    -6.609000000
H    -3.639000000    -2.153000000    -6.301000000
H    -4.328000000    -1.117000000    -7.164000000
O     0.020000000     0.664000000    -8.667000000
H     0.380000000    -0.107000000    -8.228000000
H    -0.295000000     0.335000000    -9.509000000
O    -3.474000000     0.524000000    -7.746000000
H    -4.310000000     0.985000000    -7.676000000
H    -2.881000000     1.161000000    -8.145000000
O     3.500000000    -0.764000000    -6.796000000
H     3.150000000    -1.507000000    -6.303000000
H     2.812000000    -0.099000000    -6.747000000
O    -1.901000000    -3.612000000    -4.183000000
H    -2.512000000    -3.438000000    -3.467000000
H    -1.859000000    -2.787000000    -4.667000000
O     2.391000000    -2.872000000   -10.520000000
H     3.306000000    -2.989000000   -10.778000000
H     2.435000000    -2.391000000    -9.693000000
O    -1.906000000    -1.132000000    -5.324000000
H    -1.016000000    -0.821000000    -5.158000000
H    -2.186000000    -0.652000000    -6.104000000
O     0.788000000    -4.199000000    -3.661000000
H     1.030000000    -3.282000000    -3.796000000
H    -0.162000000    -4.215000000    -3.777000000
O     3.980000000    -0.788000000    -9.346000000
H     4.935000000    -0.792000000    -9.292000000
H     3.693000000    -0.443000000    -8.501000000
O     5.166000000     1.959000000    -7.705000000
H     4.528000000     1.866000000    -6.997000000
H     4.634000000     2.051000000    -8.496000000
O     0.930000000    -1.612000000    -7.544000000
H     0.933000000    -1.242000000    -6.661000000
H     0.628000000    -2.513000000    -7.424000000
O     2.167000000    -6.270000000    -4.549000000
H     2.179000000    -5.913000000    -5.437000000
H     1.641000000    -5.647000000    -4.047000000
O     1.928000000    -5.256000000    -7.295000000
H     1.075000000    -4.827000000    -7.230000000
H     2.561000000    -4.540000000    -7.244000000
O     1.816000000     1.693000000    -6.800000000
H     1.192000000     1.783000000    -7.521000000
H     1.312000000     1.284000000    -6.097000000
O    -0.511000000    -4.235000000    -6.774000000
H    -1.089000000    -4.141000000    -7.530000000
H    -1.099000000    -4.434000000    -6.045000000
