215
-1481.61753
C    -5.398000000     0.354000000    -0.781000000
H    -5.823000000     1.313000000    -0.496000000
C    -4.591000000    -0.408000000     0.118000000
C    -4.128000000    -1.656000000    -0.281000000
H    -3.507000000    -2.229000000     0.402000000
C    -4.086000000     0.139000000     1.412000000
O    -4.571000000     1.461000000     1.668000000
H    -3.017000000     0.299000000     1.210000000
O    -4.329000000    -0.735000000     2.564000000
C    -3.314000000    -0.896000000     3.486000000
C    -2.632000000    -2.123000000     3.410000000
H    -2.981000000    -2.937000000     2.780000000
C    -1.451000000    -2.303000000     4.072000000
O    -0.813000000    -3.437000000     3.705000000
C    -0.788000000    -1.273000000     4.795000000
C     0.613000000    -1.500000000     5.435000000
H     0.703000000    -0.964000000     6.382000000
C     1.652000000    -1.056000000     4.510000000
C     2.105000000     0.242000000     4.515000000
H     1.696000000     0.956000000     5.224000000
H     0.613000000    -2.559000000     5.702000000
C    -1.509000000    -0.065000000     5.027000000
H    -1.194000000     0.717000000     5.712000000
C    -2.745000000     0.116000000     4.312000000
C    -3.522000000     1.478000000     4.365000000
H    -3.343000000     1.916000000     5.349000000
H    -4.589000000     1.317000000     4.198000000
C    -2.979000000     2.403000000     3.292000000
C    -1.902000000     3.320000000     3.402000000
H    -1.457000000     3.446000000     4.385000000
C    -3.647000000     2.391000000     2.029000000
C    -3.199000000     3.167000000     0.994000000
H    -3.633000000     3.110000000    -0.001000000
C    -2.090000000     3.969000000     1.125000000
O    -1.732000000     4.586000000    -0.077000000
C    -0.569000000     4.025000000    -0.752000000
C    -0.638000000     3.961000000    -2.252000000
C     0.511000000     4.149000000    -2.969000000
H     1.500000000     4.231000000    -2.524000000
C    -1.859000000     3.873000000    -2.861000000
H    -2.718000000     3.813000000    -2.198000000
O     0.580000000     4.817000000    -0.244000000
H    -0.408000000     3.021000000    -0.330000000
C    -1.399000000     4.111000000     2.327000000
C    -0.245000000     5.068000000     2.438000000
H    -0.157000000     5.426000000     3.466000000
H    -0.358000000     5.986000000     1.859000000
C     1.046000000     4.308000000     2.038000000
C     1.810000000     3.636000000     2.968000000
H     1.549000000     3.701000000     4.021000000
C     1.397000000     4.244000000     0.660000000
C     2.559000000     3.550000000     0.253000000
H     2.861000000     3.559000000    -0.791000000
C     3.286000000     2.869000000     1.201000000
O     4.308000000     2.051000000     0.751000000
C     4.028000000     0.670000000     0.539000000
C     4.689000000     0.186000000    -0.738000000
C     4.590000000     0.930000000    -1.925000000
H     3.960000000     1.816000000    -1.910000000
C     5.256000000    -1.066000000    -0.807000000
H     5.328000000    -1.710000000     0.066000000
O     4.599000000    -0.013000000     1.751000000
H     2.936000000     0.550000000     0.471000000
C     2.921000000     2.890000000     2.572000000
C     3.674000000     2.026000000     3.573000000
H     3.595000000     2.429000000     4.585000000
H     4.738000000     2.063000000     3.330000000
C     3.082000000     0.615000000     3.548000000
C     3.611000000    -0.375000000     2.659000000
C     3.150000000    -1.689000000     2.666000000
H     3.683000000    -2.441000000     2.089000000
C     2.116000000    -2.033000000     3.591000000
O     1.641000000    -3.298000000     3.533000000
C     0.406000000    -3.332000000     2.822000000
H     0.259000000    -2.423000000     2.221000000
C     0.410000000    -4.534000000     1.852000000
C    -0.701000000    -5.296000000     1.553000000
H    -1.645000000    -5.161000000     2.075000000
C     1.582000000    -4.699000000     1.028000000
H     2.441000000    -4.055000000     1.200000000
C     1.598000000    -5.712000000     0.066000000
O     2.730000000    -5.912000000    -0.707000000
C     0.490000000    -6.532000000    -0.138000000
H     0.520000000    -7.298000000    -0.908000000
C    -0.643000000    -6.231000000     0.504000000
O    -1.710000000    -7.000000000     0.247000000
C    -2.895000000    -6.374000000    -0.052000000
C    -2.902000000    -5.310000000    -0.867000000
H    -1.987000000    -4.899000000    -1.285000000
C    -4.024000000    -6.787000000     0.604000000
H    -3.944000000    -7.616000000     1.302000000
C    -5.165000000    -5.999000000     0.586000000
H    -6.074000000    -6.332000000     1.080000000
C    -5.264000000    -4.926000000    -0.285000000
H    -6.202000000    -4.409000000    -0.470000000
C    -4.099000000    -4.560000000    -0.988000000
O    -4.195000000    -3.530000000    -1.917000000
C    -4.459000000    -2.205000000    -1.510000000
C    -5.286000000    -1.521000000    -2.403000000
H    -5.490000000    -1.939000000    -3.386000000
C    -5.756000000    -0.183000000    -2.047000000
O    -6.227000000     0.583000000    -3.069000000
C    -5.817000000     1.875000000    -3.363000000
C    -4.616000000     2.077000000    -4.030000000
H    -3.941000000     1.259000000    -4.269000000
C    -6.843000000     2.734000000    -3.258000000
H    -7.769000000     2.323000000    -2.864000000
C    -6.569000000     4.030000000    -3.655000000
H    -7.326000000     4.810000000    -3.681000000
C    -5.330000000     4.356000000    -4.214000000
H    -5.252000000     5.409000000    -4.469000000
C    -4.338000000     3.454000000    -4.391000000
O    -3.117000000     3.811000000    -4.918000000
C    -1.921000000     3.856000000    -4.261000000
C    -0.733000000     3.968000000    -5.011000000
H    -0.828000000     3.936000000    -6.093000000
C     0.485000000     4.132000000    -4.351000000
O     1.526000000     4.390000000    -5.217000000
C     2.829000000     4.005000000    -4.903000000
C     3.205000000     2.691000000    -4.691000000
H     2.484000000     1.879000000    -4.740000000
C     3.669000000     5.070000000    -4.835000000
H     3.373000000     6.084000000    -5.089000000
C     5.016000000     4.880000000    -4.622000000
H     5.805000000     5.626000000    -4.673000000
C     5.479000000     3.581000000    -4.412000000
H     6.498000000     3.329000000    -4.129000000
C     4.559000000     2.515000000    -4.396000000
O     5.030000000     1.220000000    -4.329000000
C     5.128000000     0.460000000    -3.117000000
C     5.741000000    -0.769000000    -3.139000000
H     6.109000000    -1.144000000    -4.091000000
C     5.771000000    -1.582000000    -2.002000000
O     6.199000000    -2.900000000    -2.117000000
C     5.724000000    -3.922000000    -1.305000000
C     6.655000000    -4.736000000    -0.656000000
H     7.734000000    -4.687000000    -0.781000000
C     6.210000000    -5.765000000     0.151000000
H     6.887000000    -6.449000000     0.656000000
C     4.841000000    -6.043000000     0.196000000
H     4.620000000    -6.918000000     0.802000000
C     3.971000000    -5.339000000    -0.532000000
C     4.387000000    -4.247000000    -1.218000000
H     3.660000000    -3.612000000    -1.719000000
C    -1.027000000    -0.152000000    -2.766000000
H    -1.540000000     0.122000000    -3.684000000
C    -0.835000000     0.657000000    -1.630000000
H    -1.336000000     1.622000000    -1.622000000
C    -0.100000000     0.216000000    -0.539000000
H     0.017000000     0.835000000     0.261000000
C     0.376000000    -1.063000000    -0.478000000
H     0.962000000    -1.469000000     0.342000000
C     0.260000000    -1.856000000    -1.644000000
H     0.666000000    -2.860000000    -1.557000000
C    -0.473000000    -1.411000000    -2.784000000
C    -0.676000000    -2.275000000    -3.939000000
O    -0.489000000    -3.481000000    -3.839000000
O    -0.999000000    -1.825000000    -4.979000000
O    -4.454000000    -1.792000000    -8.792000000
H    -4.861000000    -1.492000000    -9.605000000
H    -3.672000000    -1.249000000    -8.701000000
O     2.247000000    -3.568000000    -3.878000000
H     1.362000000    -3.865000000    -3.666000000
H     2.694000000    -4.353000000    -4.194000000
O     0.905000000     0.118000000    -6.557000000
H     1.259000000    -0.189000000    -5.722000000
H     0.215000000    -0.510000000    -6.770000000
O     2.596000000    -1.526000000    -8.409000000
H     3.237000000    -1.037000000    -8.925000000
H     2.163000000    -0.861000000    -7.874000000
O    -4.506000000    -4.674000000    -8.755000000
H    -4.274000000    -3.755000000    -8.887000000
H    -4.208000000    -4.870000000    -7.866000000
O    -1.511000000    -0.627000000    -8.766000000
H    -1.302000000    -1.401000000    -9.288000000
H    -1.084000000     0.096000000    -9.226000000
O    -2.773000000    -5.484000000    -6.885000000
H    -2.862000000    -6.333000000    -6.452000000
H    -2.868000000    -4.844000000    -6.179000000
O    -4.127000000    -7.377000000    -3.315000000
H    -4.895000000    -7.565000000    -3.854000000
H    -4.043000000    -6.424000000    -3.343000000
O     2.166000000    -0.927000000    -4.393000000
H     1.945000000    -0.692000000    -3.492000000
H     2.268000000    -1.879000000    -4.374000000
O    -2.124000000    -7.696000000    -5.456000000
H    -2.545000000    -8.391000000    -5.962000000
H    -2.656000000    -7.620000000    -4.664000000
O     1.701000000     1.933000000    -8.446000000
H     2.630000000     2.053000000    -8.247000000
H     1.326000000     1.585000000    -7.637000000
O    -2.976000000    -4.458000000    -4.533000000
H    -2.213000000    -3.980000000    -4.209000000
H    -3.718000000    -4.061000000    -4.076000000
O     2.708000000    -4.153000000    -7.909000000
H     1.775000000    -4.266000000    -7.729000000
H     2.768000000    -3.297000000    -8.333000000
O    -4.347000000    -1.998000000    -6.070000000
H    -3.565000000    -1.485000000    -5.864000000
H    -4.332000000    -2.084000000    -7.023000000
O     0.033000000    -6.031000000    -2.989000000
H    -0.084000000    -5.110000000    -3.222000000
H    -0.857000000    -6.376000000    -2.920000000
O     0.038000000    -3.640000000    -7.261000000
H    -0.390000000    -4.455000000    -6.999000000
H    -0.226000000    -3.005000000    -6.595000000
O     0.600000000    -2.577000000    -9.961000000
H     0.310000000    -3.389000000    -9.544000000
H     1.207000000    -2.188000000    -9.332000000
O    -0.084000000    -6.956000000    -7.568000000
H    -0.818000000    -6.549000000    -8.028000000
H    -0.435000000    -7.174000000    -6.704000000
O    -2.379000000     0.162000000    -6.259000000
H    -2.172000000    -0.205000000    -7.118000000
H    -1.853000000    -0.353000000    -5.646000000
