215
-1485.38441
C    -4.126000000     0.028000000    -1.696000000
H    -3.741000000     1.027000000    -1.508000000
C    -4.419000000    -0.795000000    -0.595000000
C    -4.538000000    -2.171000000    -0.753000000
H    -4.579000000    -2.902000000     0.051000000
C    -4.194000000    -0.164000000     0.764000000
O    -4.670000000     1.234000000     0.876000000
H    -3.111000000    -0.191000000     0.956000000
O    -4.717000000    -0.899000000     1.889000000
C    -3.755000000    -1.238000000     2.832000000
C    -3.065000000    -2.427000000     2.690000000
H    -3.272000000    -3.091000000     1.855000000
C    -1.875000000    -2.639000000     3.421000000
O    -1.207000000    -3.759000000     3.058000000
C    -1.474000000    -1.713000000     4.394000000
C    -0.232000000    -1.894000000     5.261000000
H    -0.254000000    -1.287000000     6.169000000
C     0.907000000    -1.370000000     4.427000000
C     1.389000000    -0.061000000     4.623000000
H     0.880000000     0.565000000     5.351000000
H    -0.078000000    -2.949000000     5.496000000
C    -2.159000000    -0.493000000     4.484000000
H    -1.776000000     0.255000000     5.173000000
C    -3.293000000    -0.187000000     3.710000000
C    -3.964000000     1.133000000     3.747000000
H    -3.828000000     1.491000000     4.769000000
H    -5.052000000     1.073000000     3.666000000
C    -3.462000000     2.183000000     2.798000000
C    -2.365000000     2.991000000     3.225000000
H    -1.956000000     2.878000000     4.225000000
C    -3.855000000     2.236000000     1.436000000
C    -3.423000000     3.269000000     0.642000000
H    -3.709000000     3.241000000    -0.406000000
C    -2.391000000     4.084000000     1.081000000
O    -1.797000000     4.919000000     0.139000000
C    -0.468000000     4.565000000    -0.441000000
C    -0.412000000     5.013000000    -1.904000000
C     0.862000000     5.170000000    -2.474000000
H     1.763000000     5.165000000    -1.866000000
C    -1.545000000     4.745000000    -2.721000000
H    -2.538000000     4.509000000    -2.347000000
O     0.554000000     5.211000000     0.306000000
H    -0.424000000     3.467000000    -0.400000000
C    -1.875000000     3.986000000     2.366000000
C    -0.771000000     4.889000000     2.869000000
H    -0.979000000     5.203000000     3.894000000
H    -0.837000000     5.810000000     2.287000000
C     0.610000000     4.400000000     2.567000000
C     1.167000000     3.524000000     3.467000000
H     0.815000000     3.371000000     4.484000000
C     1.218000000     4.555000000     1.323000000
C     2.433000000     3.934000000     1.001000000
H     2.839000000     4.077000000     0.003000000
C     3.043000000     3.069000000     1.894000000
O     4.140000000     2.275000000     1.419000000
C     3.803000000     0.868000000     1.070000000
C     4.463000000     0.350000000    -0.217000000
C     4.320000000     1.187000000    -1.369000000
H     3.858000000     2.156000000    -1.200000000
C     4.974000000    -0.930000000    -0.351000000
H     5.153000000    -1.561000000     0.516000000
O     4.175000000     0.064000000     2.202000000
H     2.705000000     0.843000000     1.012000000
C     2.368000000     2.809000000     3.124000000
C     2.953000000     1.843000000     4.090000000
H     2.760000000     2.197000000     5.105000000
H     4.044000000     1.818000000     4.065000000
C     2.441000000     0.401000000     3.853000000
C     3.121000000    -0.433000000     2.952000000
C     2.696000000    -1.743000000     2.829000000
H     3.233000000    -2.402000000     2.151000000
C     1.497000000    -2.145000000     3.412000000
O     1.098000000    -3.443000000     3.136000000
C    -0.014000000    -3.681000000     2.254000000
H    -0.122000000    -2.790000000     1.618000000
C     0.344000000    -4.827000000     1.403000000
C    -0.716000000    -5.452000000     0.765000000
H    -1.722000000    -5.070000000     0.913000000
C     1.671000000    -5.018000000     0.967000000
H     2.488000000    -4.413000000     1.353000000
C     1.913000000    -6.071000000     0.027000000
O     3.258000000    -6.465000000    -0.178000000
C     0.881000000    -6.804000000    -0.538000000
H     1.144000000    -7.671000000    -1.139000000
C    -0.442000000    -6.412000000    -0.193000000
O    -1.489000000    -7.061000000    -0.762000000
C    -2.821000000    -6.611000000    -0.725000000
C    -3.210000000    -5.586000000    -1.533000000
H    -2.550000000    -5.218000000    -2.314000000
C    -3.725000000    -7.203000000     0.134000000
H    -3.392000000    -8.019000000     0.771000000
C    -5.028000000    -6.774000000     0.229000000
H    -5.763000000    -7.276000000     0.852000000
C    -5.405000000    -5.621000000    -0.485000000
H    -6.378000000    -5.141000000    -0.409000000
C    -4.506000000    -5.073000000    -1.400000000
O    -4.887000000    -4.044000000    -2.237000000
C    -4.776000000    -2.639000000    -2.057000000
C    -4.595000000    -1.831000000    -3.191000000
H    -4.705000000    -2.236000000    -4.194000000
C    -4.229000000    -0.477000000    -3.044000000
O    -3.962000000     0.281000000    -4.167000000
C    -4.285000000     1.643000000    -4.255000000
C    -3.306000000     2.550000000    -4.707000000
H    -2.336000000     2.158000000    -5.002000000
C    -5.553000000     2.090000000    -3.883000000
H    -6.246000000     1.375000000    -3.448000000
C    -5.913000000     3.462000000    -4.036000000
H    -6.918000000     3.777000000    -3.765000000
C    -4.864000000     4.291000000    -4.454000000
H    -4.998000000     5.367000000    -4.535000000
C    -3.586000000     3.867000000    -4.677000000
O    -2.528000000     4.761000000    -4.956000000
C    -1.404000000     4.891000000    -4.115000000
C    -0.171000000     5.088000000    -4.671000000
H    -0.024000000     5.163000000    -5.745000000
C     0.970000000     5.285000000    -3.884000000
O     2.204000000     5.632000000    -4.432000000
C     3.302000000     4.895000000    -4.034000000
C     3.317000000     3.544000000    -4.042000000
H     2.341000000     3.129000000    -4.280000000
C     4.469000000     5.670000000    -3.779000000
H     4.394000000     6.754000000    -3.834000000
C     5.640000000     5.018000000    -3.363000000
H     6.517000000     5.581000000    -3.053000000
C     5.681000000     3.628000000    -3.402000000
H     6.633000000     3.132000000    -3.234000000
C     4.496000000     2.917000000    -3.641000000
O     4.487000000     1.521000000    -3.656000000
C     4.809000000     0.734000000    -2.569000000
C     5.275000000    -0.559000000    -2.715000000
H     5.476000000    -0.939000000    -3.713000000
C     5.347000000    -1.344000000    -1.596000000
O     5.697000000    -2.658000000    -1.848000000
C     5.653000000    -3.733000000    -1.000000000
C     6.731000000    -4.035000000    -0.146000000
H     7.624000000    -3.416000000    -0.187000000
C     6.633000000    -5.064000000     0.746000000
H     7.542000000    -5.250000000     1.312000000
C     5.493000000    -5.882000000     0.741000000
H     5.541000000    -6.810000000     1.304000000
C     4.339000000    -5.565000000    -0.066000000
C     4.466000000    -4.459000000    -0.905000000
H     3.655000000    -4.253000000    -1.599000000
C    -0.537000000     0.794000000    -1.878000000
H    -1.323000000     1.163000000    -2.532000000
C    -0.775000000     0.728000000    -0.505000000
H    -1.731000000     1.162000000    -0.222000000
C     0.008000000    -0.064000000     0.377000000
H    -0.166000000    -0.016000000     1.501000000
C     1.098000000    -0.637000000    -0.205000000
H     1.774000000    -1.277000000     0.356000000
C     1.435000000    -0.501000000    -1.577000000
H     2.380000000    -0.970000000    -1.838000000
C     0.594000000     0.238000000    -2.391000000
C     0.975000000     0.403000000    -3.908000000
O     1.779000000    -0.340000000    -4.467000000
O     0.365000000     1.161000000    -4.623000000
O    -2.304000000     3.088000000    -7.764000000
H    -2.748000000     3.806000000    -7.312000000
H    -1.416000000     3.092000000    -7.406000000
O     5.154000000     0.518000000    -8.200000000
H     5.594000000    -0.160000000    -7.687000000
H     4.427000000     0.803000000    -7.646000000
O    -3.290000000    -2.016000000    -7.662000000
H    -2.794000000    -1.805000000    -6.871000000
H    -3.394000000    -1.177000000    -8.111000000
O     3.268000000     2.628000000    -9.200000000
H     2.664000000     1.904000000    -9.032000000
H     4.098000000     2.203000000    -9.417000000
O     0.907000000    -5.812000000    -4.140000000
H     1.535000000    -6.401000000    -3.722000000
H     0.800000000    -5.094000000    -3.516000000
O     1.471000000     0.578000000    -8.873000000
H     1.875000000    -0.286000000    -8.950000000
H     1.302000000     0.845000000    -9.776000000
O     3.186000000     1.223000000    -6.346000000
H     2.809000000     0.851000000    -5.549000000
H     2.469000000     1.206000000    -6.980000000
O     2.628000000     4.071000000    -7.121000000
H     2.980000000     3.471000000    -6.463000000
H     3.126000000     3.875000000    -7.914000000
O    -0.620000000    -4.880000000    -6.677000000
H    -0.126000000    -4.595000000    -7.445000000
H    -0.207000000    -4.424000000    -5.944000000
O    -1.650000000    -2.366000000    -0.922000000
H    -1.012000000    -1.774000000    -0.522000000
H    -2.194000000    -1.798000000    -1.468000000
O     3.303000000    -1.711000000    -9.037000000
H     3.919000000    -1.763000000    -8.307000000
H     3.594000000    -2.391000000    -9.645000000
O    -0.556000000    -0.218000000    -6.879000000
H    -0.504000000     0.379000000    -6.133000000
H     0.039000000     0.158000000    -7.529000000
O     0.844000000    -3.732000000    -2.353000000
H     0.723000000    -2.948000000    -2.890000000
H     0.080000000    -3.747000000    -1.777000000
O     3.751000000    -1.856000000    -5.291000000
H     3.023000000    -2.392000000    -5.606000000
H     3.334000000    -1.162000000    -4.780000000
O     6.663000000     1.649000000    -5.612000000
H     5.938000000     1.473000000    -5.013000000
H     6.421000000     2.466000000    -6.048000000
O     0.943000000    -2.613000000    -5.576000000
H     1.177000000    -1.801000000    -5.127000000
H     0.314000000    -2.345000000    -6.245000000
O     4.467000000    -4.209000000    -4.174000000
H     5.050000000    -4.607000000    -3.528000000
H     4.726000000    -3.288000000    -4.194000000
O     5.370000000    -2.248000000    -7.368000000
H     4.748000000    -2.035000000    -6.673000000
H     6.196000000    -2.404000000    -6.910000000
O     0.328000000     2.811000000    -6.717000000
H     0.265000000     2.212000000    -5.973000000
H     1.105000000     3.339000000    -6.534000000
