215
-1475.31665
C    -5.027000000    -0.055000000    -1.473000000
H    -4.883000000     0.984000000    -1.188000000
C    -4.763000000    -0.942000000    -0.440000000
C    -4.902000000    -2.288000000    -0.654000000
H    -4.644000000    -3.037000000     0.091000000
C    -4.264000000    -0.496000000     0.918000000
O    -4.754000000     0.785000000     1.230000000
H    -3.180000000    -0.336000000     0.822000000
O    -4.462000000    -1.357000000     2.020000000
C    -3.371000000    -1.577000000     2.746000000
C    -2.553000000    -2.707000000     2.453000000
H    -2.634000000    -3.428000000     1.644000000
C    -1.352000000    -2.887000000     3.195000000
O    -0.553000000    -3.902000000     2.672000000
C    -1.011000000    -2.103000000     4.250000000
C     0.382000000    -2.209000000     4.959000000
H     0.197000000    -1.715000000     5.915000000
C     1.494000000    -1.649000000     4.162000000
C     2.007000000    -0.422000000     4.480000000
H     1.615000000     0.071000000     5.366000000
H     0.490000000    -3.193000000     5.420000000
C    -1.842000000    -1.030000000     4.600000000
H    -1.550000000    -0.338000000     5.386000000
C    -2.989000000    -0.746000000     3.810000000
C    -3.849000000     0.490000000     4.118000000
H    -3.704000000     0.830000000     5.146000000
H    -4.898000000     0.225000000     3.973000000
C    -3.357000000     1.559000000     3.169000000
C    -2.365000000     2.448000000     3.548000000
H    -1.889000000     2.394000000     4.524000000
C    -3.892000000     1.729000000     1.836000000
C    -3.413000000     2.748000000     1.005000000
H    -3.821000000     2.878000000     0.006000000
C    -2.453000000     3.576000000     1.413000000
O    -1.908000000     4.434000000     0.523000000
C    -0.647000000     4.131000000    -0.036000000
C    -0.576000000     4.326000000    -1.588000000
C     0.629000000     4.650000000    -2.205000000
H     1.497000000     4.881000000    -1.592000000
C    -1.717000000     4.119000000    -2.360000000
H    -2.699000000     3.896000000    -1.951000000
O     0.314000000     4.961000000     0.692000000
H    -0.357000000     3.087000000     0.157000000
C    -1.920000000     3.431000000     2.715000000
C    -0.887000000     4.424000000     3.298000000
H    -1.029000000     4.458000000     4.380000000
H    -1.155000000     5.413000000     2.921000000
C     0.539000000     3.939000000     2.926000000
C     1.257000000     3.135000000     3.760000000
H     0.806000000     2.820000000     4.697000000
C     1.067000000     4.317000000     1.662000000
C     2.247000000     3.769000000     1.211000000
H     2.572000000     3.789000000     0.174000000
C     2.911000000     2.926000000     2.105000000
O     4.056000000     2.294000000     1.585000000
C     3.929000000     0.978000000     0.964000000
C     4.541000000     0.783000000    -0.414000000
C     4.810000000     1.884000000    -1.225000000
H     4.501000000     2.889000000    -0.948000000
C     4.948000000    -0.500000000    -0.715000000
H     4.729000000    -1.381000000    -0.117000000
O     4.481000000     0.048000000     1.885000000
H     2.855000000     0.859000000     0.759000000
C     2.509000000     2.698000000     3.404000000
C     3.335000000     1.706000000     4.198000000
H     3.070000000     1.750000000     5.256000000
H     4.399000000     1.926000000     4.088000000
C     2.934000000     0.294000000     3.741000000
C     3.581000000    -0.519000000     2.761000000
C     3.139000000    -1.784000000     2.472000000
H     3.672000000    -2.391000000     1.745000000
C     2.083000000    -2.309000000     3.110000000
O     1.712000000    -3.580000000     2.707000000
C     0.566000000    -3.612000000     1.797000000
H     0.425000000    -2.607000000     1.371000000
C     0.679000000    -4.605000000     0.675000000
C    -0.461000000    -5.280000000     0.201000000
H    -1.427000000    -5.049000000     0.643000000
C     1.889000000    -4.745000000     0.053000000
H     2.754000000    -4.174000000     0.378000000
C     2.038000000    -5.648000000    -1.006000000
O     3.222000000    -5.811000000    -1.611000000
C     0.888000000    -6.325000000    -1.481000000
H     1.087000000    -6.904000000    -2.379000000
C    -0.371000000    -6.153000000    -0.928000000
O    -1.522000000    -6.787000000    -1.512000000
C    -2.855000000    -6.528000000    -1.157000000
C    -3.529000000    -5.499000000    -1.789000000
H    -3.002000000    -5.084000000    -2.645000000
C    -3.522000000    -6.989000000    -0.037000000
H    -3.017000000    -7.807000000     0.471000000
C    -4.840000000    -6.668000000     0.306000000
H    -5.346000000    -7.101000000     1.165000000
C    -5.546000000    -5.763000000    -0.490000000
H    -6.609000000    -5.571000000    -0.369000000
C    -4.858000000    -5.098000000    -1.463000000
O    -5.478000000    -4.041000000    -2.148000000
C    -5.344000000    -2.742000000    -1.919000000
C    -5.574000000    -1.842000000    -2.953000000
H    -5.755000000    -2.152000000    -3.980000000
C    -5.381000000    -0.471000000    -2.778000000
O    -5.596000000     0.271000000    -3.876000000
C    -5.362000000     1.641000000    -3.852000000
C    -4.108000000     2.084000000    -4.133000000
H    -3.311000000     1.377000000    -4.349000000
C    -6.387000000     2.599000000    -3.653000000
H    -7.367000000     2.193000000    -3.416000000
C    -6.187000000     3.960000000    -3.670000000
H    -6.940000000     4.685000000    -3.371000000
C    -4.932000000     4.422000000    -4.069000000
H    -4.692000000     5.476000000    -4.192000000
C    -3.915000000     3.487000000    -4.248000000
O    -2.666000000     3.988000000    -4.682000000
C    -1.592000000     4.149000000    -3.809000000
C    -0.376000000     4.468000000    -4.377000000
H    -0.283000000     4.639000000    -5.447000000
C     0.699000000     4.743000000    -3.569000000
O     1.912000000     5.050000000    -4.198000000
C     3.206000000     5.065000000    -3.660000000
C     3.858000000     3.860000000    -3.599000000
H     3.319000000     2.988000000    -3.959000000
C     3.827000000     6.268000000    -3.289000000
H     3.319000000     7.227000000    -3.343000000
C     5.139000000     6.268000000    -2.945000000
H     5.611000000     7.214000000    -2.690000000
C     5.841000000     5.061000000    -2.781000000
H     6.885000000     5.025000000    -2.479000000
C     5.202000000     3.861000000    -3.158000000
O     5.954000000     2.684000000    -3.218000000
C     5.606000000     1.587000000    -2.346000000
C     6.045000000     0.353000000    -2.677000000
H     6.628000000     0.190000000    -3.579000000
C     5.676000000    -0.725000000    -1.898000000
O     6.059000000    -1.980000000    -2.354000000
C     5.824000000    -3.150000000    -1.678000000
C     6.599000000    -3.616000000    -0.615000000
H     7.506000000    -3.109000000    -0.296000000
C     6.205000000    -4.716000000     0.143000000
H     6.821000000    -5.088000000     0.956000000
C     5.093000000    -5.485000000    -0.225000000
H     4.831000000    -6.401000000     0.296000000
C     4.314000000    -5.097000000    -1.323000000
C     4.635000000    -3.907000000    -2.005000000
H     3.962000000    -3.426000000    -2.710000000
C    -0.363000000     0.941000000    -2.611000000
H    -0.804000000     1.437000000    -3.472000000
C    -0.888000000     1.087000000    -1.331000000
H    -1.703000000     1.790000000    -1.178000000
C    -0.418000000     0.361000000    -0.195000000
H    -0.766000000     0.515000000     0.837000000
C     0.563000000    -0.576000000    -0.432000000
H     1.009000000    -1.035000000     0.447000000
C     1.088000000    -0.775000000    -1.724000000
H     1.889000000    -1.477000000    -1.942000000
C     0.686000000     0.033000000    -2.818000000
C     1.161000000    -0.303000000    -4.220000000
O     1.738000000    -1.368000000    -4.403000000
O     0.746000000     0.408000000    -5.117000000
O    -2.605000000     2.264000000    -7.145000000
H    -2.522000000     1.588000000    -6.473000000
H    -1.718000000     2.608000000    -7.250000000
O    -0.895000000    -2.631000000    -9.610000000
H    -0.577000000    -2.167000000    -8.836000000
H    -0.101000000    -2.897000000   -10.073000000
O     4.267000000    -1.527000000    -5.489000000
H     3.362000000    -1.527000000    -5.178000000
H     4.624000000    -0.692000000    -5.189000000
O    -1.956000000    -0.056000000    -5.672000000
H    -2.016000000    -0.878000000    -5.186000000
H    -1.054000000     0.236000000    -5.537000000
O     1.154000000     0.680000000    -9.311000000
H     2.049000000     0.886000000    -9.580000000
H     0.711000000     0.431000000   -10.123000000
O     2.565000000    -6.663000000    -4.668000000
H     3.108000000    -6.364000000    -5.397000000
H     2.727000000    -6.026000000    -3.972000000
O     2.588000000     1.483000000    -6.846000000
H     1.969000000     1.021000000    -6.281000000
H     3.447000000     1.156000000    -6.578000000
O     2.971000000     4.346000000    -6.914000000
H     2.750000000     4.408000000    -5.985000000
H     2.827000000     3.425000000    -7.133000000
O    -2.015000000    -2.479000000    -3.962000000
H    -2.795000000    -2.790000000    -4.422000000
H    -2.304000000    -2.353000000    -3.058000000
O     3.277000000    -3.491000000    -8.749000000
H     2.776000000    -3.602000000    -7.941000000
H     2.698000000    -3.820000000    -9.436000000
O     5.372000000    -1.816000000    -8.502000000
H     4.595000000    -2.336000000    -8.708000000
H     5.340000000    -1.702000000    -7.552000000
O    -4.164000000    -0.805000000    -7.352000000
H    -4.330000000    -1.747000000    -7.317000000
H    -3.349000000    -0.688000000    -6.864000000
O     0.404000000    -1.238000000    -7.455000000
H     0.956000000    -0.539000000    -7.805000000
H    -0.106000000    -0.817000000    -6.763000000
O     0.526000000    -3.499000000    -3.585000000
H    -0.378000000    -3.188000000    -3.625000000
H     1.056000000    -2.708000000    -3.680000000
O     6.065000000     1.329000000    -6.185000000
H     6.270000000     1.912000000    -6.915000000
H     6.088000000     1.895000000    -5.413000000
O     1.509000000    -3.579000000    -6.398000000
H     1.451000000    -3.609000000    -5.443000000
H     1.045000000    -2.777000000    -6.641000000
O    -1.178000000    -5.930000000    -4.445000000
H    -0.617000000    -5.174000000    -4.269000000
H    -1.371000000    -6.291000000    -3.580000000
O     4.538000000    -4.331000000    -5.760000000
H     3.854000000    -3.714000000    -5.503000000
H     5.345000000    -3.817000000    -5.740000000
O    -0.009000000     2.510000000    -7.330000000
H     0.794000000     2.375000000    -6.827000000
H     0.199000000     2.184000000    -8.206000000
