215
-1444.81628
C    -4.483000000    -0.131000000    -1.734000000
H    -4.506000000     0.948000000    -1.607000000
C    -4.344000000    -0.962000000    -0.644000000
C    -4.305000000    -2.320000000    -0.900000000
H    -4.061000000    -3.034000000    -0.118000000
C    -4.003000000    -0.344000000     0.690000000
O    -4.726000000     0.897000000     0.958000000
H    -2.931000000    -0.102000000     0.641000000
O    -4.236000000    -1.218000000     1.777000000
C    -3.213000000    -1.322000000     2.660000000
C    -2.398000000    -2.433000000     2.531000000
H    -2.560000000    -3.147000000     1.728000000
C    -1.316000000    -2.636000000     3.372000000
O    -0.563000000    -3.789000000     3.180000000
C    -1.181000000    -1.832000000     4.497000000
C     0.067000000    -1.931000000     5.403000000
H    -0.137000000    -1.307000000     6.275000000
C     1.231000000    -1.317000000     4.599000000
C     1.652000000    -0.018000000     4.891000000
H     1.071000000     0.624000000     5.548000000
H     0.373000000    -2.960000000     5.601000000
C    -2.074000000    -0.756000000     4.684000000
H    -1.975000000    -0.086000000     5.534000000
C    -3.025000000    -0.468000000     3.724000000
C    -3.894000000     0.759000000     3.801000000
H    -3.949000000     1.052000000     4.852000000
H    -4.942000000     0.491000000     3.648000000
C    -3.477000000     1.875000000     2.894000000
C    -2.645000000     2.939000000     3.329000000
H    -2.247000000     2.911000000     4.340000000
C    -3.980000000     1.921000000     1.531000000
C    -3.457000000     2.862000000     0.627000000
H    -3.721000000     2.816000000    -0.427000000
C    -2.507000000     3.770000000     1.085000000
O    -1.980000000     4.637000000     0.143000000
C    -0.706000000     4.197000000    -0.488000000
C    -0.740000000     4.368000000    -1.919000000
C     0.424000000     4.214000000    -2.639000000
H     1.328000000     4.099000000    -2.046000000
C    -1.934000000     4.710000000    -2.628000000
H    -2.856000000     4.879000000    -2.077000000
O     0.372000000     4.918000000     0.092000000
H    -0.664000000     3.144000000    -0.174000000
C    -2.076000000     3.888000000     2.434000000
C    -1.016000000     4.786000000     2.807000000
H    -1.097000000     4.989000000     3.877000000
H    -1.116000000     5.791000000     2.393000000
C     0.406000000     4.267000000     2.481000000
C     1.111000000     3.656000000     3.528000000
H     0.682000000     3.378000000     4.487000000
C     0.970000000     4.351000000     1.166000000
C     2.228000000     3.876000000     0.944000000
H     2.654000000     4.023000000    -0.045000000
C     2.833000000     3.187000000     1.957000000
O     3.916000000     2.352000000     1.606000000
C     3.569000000     1.029000000     1.171000000
C     4.044000000     0.728000000    -0.234000000
C     4.376000000     1.670000000    -1.157000000
H     4.276000000     2.708000000    -0.853000000
C     4.184000000    -0.618000000    -0.642000000
H     3.846000000    -1.367000000     0.069000000
O     4.117000000     0.187000000     2.169000000
H     2.473000000     1.061000000     1.269000000
C     2.272000000     2.978000000     3.223000000
C     3.007000000     2.110000000     4.214000000
H     2.852000000     2.513000000     5.217000000
H     4.078000000     2.113000000     4.005000000
C     2.654000000     0.594000000     4.128000000
C     3.276000000    -0.265000000     3.141000000
C     3.048000000    -1.589000000     3.067000000
H     3.708000000    -2.202000000     2.458000000
C     1.953000000    -2.149000000     3.740000000
O     1.676000000    -3.457000000     3.429000000
C     0.677000000    -3.629000000     2.488000000
H     0.651000000    -2.771000000     1.801000000
C     0.977000000    -4.808000000     1.612000000
C    -0.076000000    -5.463000000     1.041000000
H    -1.092000000    -5.113000000     1.205000000
C     2.326000000    -5.211000000     1.346000000
H     3.178000000    -4.665000000     1.743000000
C     2.538000000    -6.182000000     0.328000000
O     3.786000000    -6.512000000    -0.070000000
C     1.426000000    -6.756000000    -0.261000000
H     1.539000000    -7.466000000    -1.077000000
C     0.127000000    -6.517000000     0.158000000
O    -0.870000000    -7.132000000    -0.626000000
C    -2.135000000    -6.679000000    -0.638000000
C    -2.587000000    -5.667000000    -1.516000000
H    -1.984000000    -5.369000000    -2.370000000
C    -3.000000000    -7.074000000     0.405000000
H    -2.570000000    -7.793000000     1.098000000
C    -4.266000000    -6.559000000     0.535000000
H    -4.926000000    -6.883000000     1.336000000
C    -4.731000000    -5.639000000    -0.456000000
H    -5.707000000    -5.195000000    -0.279000000
C    -3.867000000    -5.287000000    -1.485000000
O    -4.313000000    -4.277000000    -2.409000000
C    -4.407000000    -2.898000000    -2.183000000
C    -4.433000000    -2.043000000    -3.213000000
H    -4.303000000    -2.461000000    -4.208000000
C    -4.625000000    -0.657000000    -2.997000000
O    -4.712000000     0.221000000    -4.033000000
C    -4.963000000     1.553000000    -4.086000000
C    -3.893000000     2.482000000    -4.419000000
H    -2.856000000     2.155000000    -4.448000000
C    -6.279000000     2.010000000    -3.932000000
H    -7.020000000     1.217000000    -3.859000000
C    -6.504000000     3.352000000    -4.064000000
H    -7.529000000     3.714000000    -4.049000000
C    -5.493000000     4.271000000    -4.299000000
H    -5.773000000     5.305000000    -4.483000000
C    -4.183000000     3.821000000    -4.472000000
O    -3.140000000     4.728000000    -4.653000000
C    -1.966000000     4.674000000    -4.003000000
C    -0.767000000     4.647000000    -4.655000000
H    -0.718000000     4.858000000    -5.720000000
C     0.415000000     4.481000000    -4.001000000
O     1.488000000     4.427000000    -4.801000000
C     2.755000000     4.483000000    -4.274000000
C     3.489000000     3.263000000    -3.930000000
H     2.983000000     2.314000000    -4.089000000
C     3.468000000     5.738000000    -4.220000000
H     2.892000000     6.622000000    -4.483000000
C     4.806000000     5.842000000    -3.920000000
H     5.309000000     6.806000000    -3.954000000
C     5.477000000     4.626000000    -3.563000000
H     6.553000000     4.558000000    -3.427000000
C     4.811000000     3.410000000    -3.504000000
O     5.425000000     2.256000000    -3.205000000
C     4.929000000     1.325000000    -2.393000000
C     5.178000000    -0.017000000    -2.735000000
H     5.652000000    -0.266000000    -3.681000000
C     4.769000000    -0.967000000    -1.846000000
O     4.803000000    -2.304000000    -2.243000000
C     5.085000000    -3.379000000    -1.442000000
C     6.366000000    -3.384000000    -0.862000000
H     7.058000000    -2.646000000    -1.259000000
C     6.831000000    -4.413000000     0.007000000
H     7.820000000    -4.396000000     0.457000000
C     5.917000000    -5.423000000     0.299000000
H     6.215000000    -6.211000000     0.986000000
C     4.659000000    -5.494000000    -0.373000000
C     4.231000000    -4.426000000    -1.183000000
H     3.329000000    -4.625000000    -1.756000000
C     0.858000000     0.480000000    -2.463000000
H     0.889000000     1.463000000    -2.927000000
C     0.163000000     0.234000000    -1.245000000
H    -0.247000000     1.138000000    -0.801000000
C     0.138000000    -1.033000000    -0.681000000
H    -0.362000000    -1.211000000     0.307000000
C     0.629000000    -2.145000000    -1.355000000
H     0.521000000    -3.135000000    -0.920000000
C     1.398000000    -1.952000000    -2.542000000
H     1.841000000    -2.796000000    -3.065000000
C     1.485000000    -0.610000000    -3.095000000
C     2.064000000    -0.405000000    -4.478000000
O     2.741000000    -1.254000000    -4.918000000
O     1.656000000     0.456000000    -5.264000000
O     6.496000000     0.772000000    -7.614000000
H     5.726000000     0.602000000    -7.070000000
H     7.129000000     1.168000000    -7.015000000
O    -3.461000000     1.828000000    -7.739000000
H    -3.830000000     0.959000000    -7.582000000
H    -2.705000000     1.876000000    -7.153000000
O    -1.704000000    -1.777000000    -9.660000000
H    -1.614000000    -0.860000000    -9.919000000
H    -1.694000000    -1.758000000    -8.703000000
O     4.735000000    -2.831000000    -5.934000000
H     5.578000000    -2.390000000    -5.835000000
H     4.109000000    -2.253000000    -5.499000000
O    -1.527000000    -0.881000000    -6.628000000
H    -1.187000000    -1.460000000    -5.946000000
H    -1.150000000    -0.025000000    -6.425000000
O     1.317000000     3.510000000    -7.857000000
H     2.227000000     3.211000000    -7.846000000
H     1.300000000     4.197000000    -8.523000000
O     3.822000000     2.608000000    -8.487000000
H     4.159000000     2.715000000    -9.377000000
H     4.111000000     1.734000000    -8.225000000
O     2.357000000    -5.945000000    -4.824000000
H     2.678000000    -6.129000000    -5.707000000
H     1.919000000    -5.097000000    -4.901000000
O     7.344000000    -2.207000000    -5.042000000
H     7.528000000    -3.091000000    -4.726000000
H     7.692000000    -2.194000000    -5.934000000
O     4.215000000     0.390000000    -6.270000000
H     3.400000000     0.874000000    -6.404000000
H     4.056000000    -0.136000000    -5.487000000
O    -1.385000000    -2.681000000    -4.234000000
H    -1.904000000    -3.358000000    -4.669000000
H    -1.727000000    -2.654000000    -3.341000000
O     3.411000000    -2.357000000    -8.303000000
H     3.758000000    -2.483000000    -7.419000000
H     2.635000000    -1.810000000    -8.180000000
O     1.149000000    -1.294000000    -7.673000000
H     0.197000000    -1.194000000    -7.709000000
H     1.410000000    -0.813000000    -6.888000000
O     1.214000000    -3.397000000    -5.369000000
H     0.483000000    -3.056000000    -4.854000000
H     1.847000000    -2.680000000    -5.390000000
O     7.367000000     2.523000000    -5.565000000
H     8.249000000     2.169000000    -5.454000000
H     6.950000000     2.402000000    -4.712000000
O     2.886000000    -4.642000000    -9.347000000
H     3.136000000    -3.813000000    -8.939000000
H     2.083000000    -4.440000000    -9.826000000
O     0.226000000    -5.214000000    -7.116000000
H     0.479000000    -4.588000000    -6.437000000
H     0.407000000    -4.759000000    -7.939000000
O     4.854000000    -5.340000000    -6.494000000
H     4.859000000    -5.457000000    -7.444000000
H     4.809000000    -4.392000000    -6.369000000
O    -0.621000000     1.705000000    -6.210000000
H     0.178000000     1.528000000    -5.714000000
H    -0.311000000     1.974000000    -7.075000000
