215
-1424.90310
C    -4.753000000     0.291000000    -1.299000000
H    -4.325000000     1.284000000    -1.193000000
C    -4.635000000    -0.605000000    -0.219000000
C    -5.001000000    -1.952000000    -0.413000000
H    -4.926000000    -2.638000000     0.427000000
C    -4.060000000    -0.061000000     1.054000000
O    -4.580000000     1.239000000     1.441000000
H    -2.976000000     0.107000000     0.979000000
O    -4.276000000    -0.965000000     2.114000000
C    -3.344000000    -1.294000000     2.978000000
C    -2.637000000    -2.484000000     2.714000000
H    -2.750000000    -3.153000000     1.865000000
C    -1.529000000    -2.744000000     3.516000000
O    -0.744000000    -3.809000000     3.093000000
C    -1.079000000    -1.786000000     4.485000000
C     0.221000000    -2.137000000     5.146000000
H     0.230000000    -1.624000000     6.110000000
C     1.453000000    -1.674000000     4.351000000
C     1.958000000    -0.345000000     4.601000000
H     1.464000000     0.282000000     5.339000000
H     0.236000000    -3.193000000     5.422000000
C    -1.800000000    -0.637000000     4.731000000
H    -1.298000000     0.045000000     5.412000000
C    -2.947000000    -0.365000000     3.962000000
C    -3.596000000     1.048000000     4.197000000
H    -3.424000000     1.498000000     5.177000000
H    -4.685000000     0.983000000     4.154000000
C    -3.104000000     2.078000000     3.160000000
C    -2.173000000     3.015000000     3.571000000
H    -1.726000000     2.934000000     4.558000000
C    -3.629000000     2.161000000     1.856000000
C    -3.186000000     3.107000000     0.991000000
H    -3.450000000     3.154000000    -0.063000000
C    -2.196000000     4.003000000     1.374000000
O    -1.672000000     4.747000000     0.401000000
C    -0.480000000     4.312000000    -0.254000000
C    -0.517000000     4.629000000    -1.710000000
C     0.629000000     4.865000000    -2.395000000
H     1.565000000     4.721000000    -1.860000000
C    -1.699000000     4.648000000    -2.399000000
H    -2.701000000     4.464000000    -2.019000000
O     0.702000000     4.913000000     0.332000000
H    -0.450000000     3.213000000    -0.239000000
C    -1.572000000     3.905000000     2.669000000
C    -0.390000000     4.756000000     2.899000000
H    -0.354000000     5.070000000     3.945000000
H    -0.503000000     5.727000000     2.413000000
C     0.871000000     4.031000000     2.564000000
C     1.539000000     3.227000000     3.444000000
H     1.132000000     3.170000000     4.450000000
C     1.415000000     4.184000000     1.275000000
C     2.489000000     3.468000000     0.880000000
H     2.812000000     3.677000000    -0.136000000
C     3.223000000     2.666000000     1.736000000
O     4.267000000     1.953000000     1.301000000
C     4.179000000     0.502000000     1.000000000
C     4.939000000     0.275000000    -0.317000000
C     4.747000000     1.093000000    -1.420000000
H     3.988000000     1.866000000    -1.324000000
C     5.722000000    -0.860000000    -0.408000000
H     5.855000000    -1.584000000     0.392000000
O     4.582000000    -0.275000000     2.046000000
H     3.148000000     0.132000000     0.901000000
C     2.689000000     2.553000000     3.033000000
C     3.327000000     1.579000000     4.017000000
H     3.059000000     1.734000000     5.064000000
H     4.398000000     1.787000000     3.982000000
C     2.982000000     0.130000000     3.832000000
C     3.716000000    -0.736000000     2.985000000
C     3.256000000    -2.069000000     2.757000000
H     3.858000000    -2.735000000     2.144000000
C     2.139000000    -2.503000000     3.444000000
O     1.618000000    -3.703000000     3.048000000
C     0.369000000    -3.591000000     2.283000000
H     0.368000000    -2.590000000     1.826000000
C     0.405000000    -4.553000000     1.061000000
C    -0.670000000    -5.318000000     0.567000000
H    -1.547000000    -5.399000000     1.203000000
C     1.448000000    -4.300000000     0.215000000
H     2.234000000    -3.658000000     0.604000000
C     1.503000000    -4.916000000    -1.067000000
O     2.540000000    -4.688000000    -1.932000000
C     0.436000000    -5.704000000    -1.484000000
H     0.414000000    -6.164000000    -2.469000000
C    -0.667000000    -5.852000000    -0.677000000
O    -1.800000000    -6.547000000    -1.123000000
C    -3.190000000    -6.268000000    -0.981000000
C    -3.735000000    -5.019000000    -1.386000000
H    -3.140000000    -4.234000000    -1.845000000
C    -4.003000000    -7.276000000    -0.516000000
H    -3.554000000    -8.244000000    -0.308000000
C    -5.330000000    -7.015000000    -0.275000000
H    -6.029000000    -7.831000000    -0.111000000
C    -5.875000000    -5.800000000    -0.734000000
H    -6.962000000    -5.801000000    -0.703000000
C    -5.119000000    -4.805000000    -1.335000000
O    -5.730000000    -3.709000000    -1.952000000
C    -5.416000000    -2.367000000    -1.644000000
C    -5.476000000    -1.554000000    -2.709000000
H    -5.840000000    -1.890000000    -3.676000000
C    -5.139000000    -0.209000000    -2.575000000
O    -4.946000000     0.607000000    -3.665000000
C    -5.020000000     1.976000000    -3.793000000
C    -4.021000000     2.676000000    -4.409000000
H    -3.229000000     2.191000000    -4.973000000
C    -5.987000000     2.665000000    -3.036000000
H    -6.744000000     2.076000000    -2.525000000
C    -6.002000000     4.041000000    -3.151000000
H    -6.798000000     4.588000000    -2.653000000
C    -4.953000000     4.770000000    -3.702000000
H    -4.842000000     5.833000000    -3.504000000
C    -3.985000000     4.052000000    -4.316000000
O    -2.864000000     4.820000000    -4.556000000
C    -1.707000000     4.724000000    -3.784000000
C    -0.514000000     4.840000000    -4.457000000
H    -0.529000000     4.907000000    -5.542000000
C     0.731000000     4.883000000    -3.792000000
O     1.937000000     5.143000000    -4.444000000
C     3.075000000     4.655000000    -3.920000000
C     3.467000000     3.313000000    -4.104000000
H     2.735000000     2.633000000    -4.532000000
C     4.017000000     5.510000000    -3.358000000
H     3.810000000     6.558000000    -3.154000000
C     5.232000000     5.030000000    -2.984000000
H     5.939000000     5.670000000    -2.461000000
C     5.578000000     3.726000000    -3.109000000
H     6.527000000     3.388000000    -2.699000000
C     4.725000000     2.820000000    -3.711000000
O     5.002000000     1.470000000    -3.768000000
C     5.328000000     0.741000000    -2.649000000
C     6.070000000    -0.444000000    -2.765000000
H     6.424000000    -0.736000000    -3.750000000
C     6.234000000    -1.281000000    -1.645000000
O     6.734000000    -2.577000000    -1.864000000
C     5.966000000    -3.642000000    -1.433000000
C     6.518000000    -4.696000000    -0.742000000
H     7.546000000    -4.547000000    -0.421000000
C     5.711000000    -5.766000000    -0.305000000
H     6.028000000    -6.661000000     0.225000000
C     4.386000000    -5.805000000    -0.715000000
H     3.872000000    -6.710000000    -0.403000000
C     3.894000000    -4.806000000    -1.503000000
C     4.675000000    -3.705000000    -1.843000000
H     4.218000000    -2.893000000    -2.403000000
C    -0.663000000     0.996000000    -2.315000000
H    -1.236000000     1.749000000    -2.849000000
C    -1.018000000     0.522000000    -1.058000000
H    -1.961000000     0.873000000    -0.648000000
C    -0.319000000    -0.384000000    -0.291000000
H    -0.715000000    -0.629000000     0.638000000
C     0.872000000    -0.785000000    -0.864000000
H     1.400000000    -1.475000000    -0.211000000
C     1.367000000    -0.374000000    -2.089000000
H     2.264000000    -0.786000000    -2.544000000
C     0.510000000     0.508000000    -2.849000000
C     0.857000000     0.659000000    -4.322000000
O     1.711000000    -0.039000000    -4.862000000
O     0.122000000     1.283000000    -5.007000000
O     4.574000000    -5.300000000    -4.390000000
H     4.652000000    -4.565000000    -3.782000000
H     5.432000000    -5.723000000    -4.366000000
O    -3.231000000     3.150000000    -9.052000000
H    -3.538000000     3.905000000    -8.550000000
H    -2.320000000     3.036000000    -8.781000000
O    -4.405000000    -1.128000000    -7.666000000
H    -3.775000000    -0.617000000    -7.158000000
H    -4.405000000    -0.718000000    -8.531000000
O    -1.064000000    -5.090000000    -4.427000000
H    -0.166000000    -5.112000000    -4.759000000
H    -1.036000000    -4.462000000    -3.705000000
O     0.197000000     0.470000000   -10.264000000
H    -0.167000000     1.127000000   -10.857000000
H     0.450000000     0.965000000    -9.485000000
O     2.637000000     0.557000000    -7.470000000
H     2.168000000     0.208000000    -6.712000000
H     2.392000000    -0.023000000    -8.191000000
O     2.338000000     3.606000000    -8.751000000
H     2.668000000     4.343000000    -8.236000000
H     3.079000000     3.003000000    -8.807000000
O    -1.394000000    -5.259000000    -7.167000000
H    -1.284000000    -5.251000000    -6.216000000
H    -2.233000000    -4.822000000    -7.314000000
O    -0.408000000    -2.850000000    -2.904000000
H    -0.363000000    -2.556000000    -3.814000000
H     0.019000000    -2.153000000    -2.406000000
O     2.235000000    -2.749000000    -9.963000000
H     2.211000000    -2.636000000    -9.013000000
H     1.345000000    -3.013000000   -10.196000000
O    -2.297000000     0.270000000    -6.487000000
H    -1.805000000     0.753000000    -7.151000000
H    -1.849000000     0.470000000    -5.665000000
O    -3.649000000    -2.533000000    -4.963000000
H    -3.909000000    -1.630000000    -4.781000000
H    -2.713000000    -2.478000000    -5.154000000
O     3.927000000    -1.669000000    -4.927000000
H     3.152000000    -1.166000000    -4.676000000
H     3.661000000    -2.139000000    -5.717000000
O     5.379000000     0.604000000    -6.478000000
H     5.373000000     0.303000000    -5.569000000
H     4.479000000     0.886000000    -6.642000000
O    -0.375000000    -2.253000000    -5.620000000
H     0.057000000    -1.486000000    -5.245000000
H    -0.674000000    -1.963000000    -6.482000000
O     1.595000000    -5.505000000    -4.972000000
H     2.500000000    -5.263000000    -4.775000000
H     1.638000000    -6.437000000    -5.184000000
O     1.894000000    -3.563000000    -7.042000000
H     0.955000000    -3.444000000    -7.189000000
H     1.948000000    -4.031000000    -6.208000000
O    -0.205000000     2.029000000    -7.459000000
H    -0.137000000     1.918000000    -6.510000000
H     0.658000000     2.345000000    -7.725000000
O    -1.060000000    -2.460000000    -8.329000000
H    -1.745000000    -3.129000000    -8.331000000
H    -1.018000000    -2.157000000    -9.236000000
