215
-1454.97080
C    -4.238000000    -0.386000000    -2.368000000
H    -3.937000000     0.658000000    -2.324000000
C    -4.433000000    -1.080000000    -1.194000000
C    -4.717000000    -2.433000000    -1.236000000
H    -4.837000000    -3.062000000    -0.357000000
C    -4.212000000    -0.347000000     0.183000000
O    -4.694000000     1.023000000     0.105000000
H    -3.129000000    -0.212000000     0.319000000
O    -4.847000000    -0.939000000     1.310000000
C    -4.030000000    -1.025000000     2.367000000
C    -3.259000000    -2.195000000     2.511000000
H    -3.381000000    -3.069000000     1.877000000
C    -2.357000000    -2.360000000     3.557000000
O    -1.436000000    -3.463000000     3.641000000
C    -2.091000000    -1.224000000     4.357000000
C    -0.954000000    -1.229000000     5.333000000
H    -1.247000000    -0.643000000     6.207000000
C     0.419000000    -0.765000000     4.784000000
C     0.742000000     0.588000000     4.870000000
H     0.026000000     1.273000000     5.318000000
H    -0.848000000    -2.243000000     5.726000000
C    -2.842000000    -0.047000000     4.239000000
H    -2.657000000     0.821000000     4.867000000
C    -3.833000000     0.065000000     3.260000000
C    -4.508000000     1.374000000     3.028000000
H    -4.555000000     1.796000000     4.034000000
H    -5.527000000     1.186000000     2.685000000
C    -3.794000000     2.273000000     2.059000000
C    -2.902000000     3.263000000     2.507000000
H    -2.897000000     3.474000000     3.573000000
C    -3.933000000     2.071000000     0.685000000
C    -3.207000000     2.818000000    -0.204000000
H    -3.242000000     2.569000000    -1.261000000
C    -2.297000000     3.799000000     0.215000000
O    -1.465000000     4.431000000    -0.757000000
C    -0.090000000     4.080000000    -0.951000000
C     0.220000000     3.973000000    -2.469000000
C     1.505000000     4.245000000    -2.901000000
H     2.165000000     4.563000000    -2.098000000
C    -0.767000000     3.610000000    -3.422000000
H    -1.763000000     3.482000000    -3.008000000
O     0.766000000     5.020000000    -0.243000000
H     0.152000000     3.061000000    -0.617000000
C    -2.174000000     4.111000000     1.596000000
C    -1.062000000     5.129000000     1.995000000
H    -1.375000000     5.436000000     2.995000000
H    -1.164000000     5.996000000     1.339000000
C     0.333000000     4.512000000     2.141000000
C     0.756000000     3.840000000     3.282000000
H     0.129000000     3.975000000     4.160000000
C     1.180000000     4.641000000     1.003000000
C     2.476000000     4.053000000     1.101000000
H     3.170000000     4.027000000     0.265000000
C     2.883000000     3.365000000     2.240000000
O     4.012000000     2.575000000     2.192000000
C     3.830000000     1.209000000     1.919000000
C     4.796000000     0.735000000     0.801000000
C     5.023000000     1.508000000    -0.391000000
H     4.653000000     2.530000000    -0.407000000
C     5.160000000    -0.601000000     0.693000000
H     4.998000000    -1.324000000     1.489000000
O     4.023000000     0.508000000     3.122000000
H     2.825000000     1.035000000     1.509000000
C     1.988000000     3.239000000     3.311000000
C     2.445000000     2.457000000     4.544000000
H     1.981000000     2.912000000     5.421000000
H     3.508000000     2.496000000     4.792000000
C     1.995000000     1.015000000     4.438000000
C     2.830000000     0.158000000     3.734000000
C     2.516000000    -1.210000000     3.649000000
H     3.024000000    -1.909000000     2.989000000
C     1.267000000    -1.694000000     4.112000000
O     0.876000000    -3.016000000     3.887000000
C    -0.232000000    -3.275000000     2.942000000
H    -0.363000000    -2.373000000     2.327000000
C    -0.021000000    -4.368000000     1.938000000
C    -1.090000000    -5.116000000     1.426000000
H    -2.100000000    -5.021000000     1.817000000
C     1.277000000    -4.500000000     1.373000000
H     2.146000000    -3.928000000     1.690000000
C     1.481000000    -5.461000000     0.378000000
O     2.780000000    -5.611000000    -0.193000000
C     0.385000000    -6.301000000    -0.073000000
H     0.489000000    -7.092000000    -0.811000000
C    -0.870000000    -6.174000000     0.492000000
O    -1.952000000    -6.926000000     0.117000000
C    -3.239000000    -6.475000000    -0.167000000
C    -3.524000000    -5.527000000    -1.124000000
H    -2.685000000    -5.081000000    -1.652000000
C    -4.317000000    -7.256000000     0.322000000
H    -4.146000000    -8.080000000     1.010000000
C    -5.570000000    -7.015000000    -0.111000000
H    -6.317000000    -7.667000000     0.333000000
C    -5.879000000    -6.066000000    -1.120000000
H    -6.915000000    -5.989000000    -1.439000000
C    -4.852000000    -5.281000000    -1.627000000
O    -5.076000000    -4.378000000    -2.633000000
C    -5.000000000    -3.019000000    -2.491000000
C    -5.005000000    -2.259000000    -3.664000000
H    -5.143000000    -2.711000000    -4.643000000
C    -4.652000000    -0.911000000    -3.604000000
O    -4.458000000    -0.263000000    -4.799000000
C    -4.211000000     1.094000000    -4.964000000
C    -2.911000000     1.551000000    -5.332000000
H    -2.167000000     0.852000000    -5.706000000
C    -5.195000000     1.961000000    -4.589000000
H    -6.132000000     1.654000000    -4.131000000
C    -4.957000000     3.371000000    -4.703000000
H    -5.652000000     4.123000000    -4.337000000
C    -3.715000000     3.784000000    -5.129000000
H    -3.432000000     4.834000000    -5.099000000
C    -2.702000000     2.932000000    -5.451000000
O    -1.456000000     3.364000000    -5.822000000
C    -0.482000000     3.584000000    -4.791000000
C     0.792000000     3.950000000    -5.187000000
H     1.002000000     4.067000000    -6.247000000
C     1.802000000     4.223000000    -4.258000000
O     3.002000000     4.671000000    -4.726000000
C     4.276000000     4.283000000    -4.330000000
C     4.557000000     3.210000000    -3.447000000
H     3.770000000     2.514000000    -3.168000000
C     5.399000000     5.082000000    -4.680000000
H     5.272000000     5.920000000    -5.361000000
C     6.688000000     4.815000000    -4.215000000
H     7.573000000     5.334000000    -4.574000000
C     6.899000000     3.632000000    -3.427000000
H     7.902000000     3.284000000    -3.195000000
C     5.840000000     2.892000000    -3.071000000
O     6.119000000     1.650000000    -2.567000000
C     5.700000000     0.975000000    -1.471000000
C     6.221000000    -0.274000000    -1.430000000
H     6.684000000    -0.654000000    -2.337000000
C     5.880000000    -1.097000000    -0.349000000
O     6.351000000    -2.360000000    -0.476000000
C     5.729000000    -3.464000000     0.142000000
C     6.262000000    -3.849000000     1.320000000
H     7.197000000    -3.448000000     1.702000000
C     5.717000000    -4.913000000     1.995000000
H     6.176000000    -5.337000000     2.885000000
C     4.534000000    -5.533000000     1.504000000
H     4.182000000    -6.444000000     1.981000000
C     3.933000000    -5.048000000     0.340000000
C     4.478000000    -3.973000000    -0.305000000
H     3.996000000    -3.566000000    -1.191000000
C     0.106000000    -0.236000000    -2.021000000
H    -0.503000000     0.180000000    -2.819000000
C    -0.228000000     0.131000000    -0.675000000
H    -1.159000000     0.619000000    -0.398000000
C     0.617000000    -0.324000000     0.349000000
H     0.395000000    -0.219000000     1.382000000
C     1.786000000    -1.014000000     0.033000000
H     2.449000000    -1.297000000     0.847000000
C     2.177000000    -1.238000000    -1.266000000
H     3.121000000    -1.715000000    -1.518000000
C     1.278000000    -0.909000000    -2.348000000
C     1.770000000    -1.166000000    -3.738000000
O     2.489000000    -2.095000000    -3.961000000
O     1.279000000    -0.615000000    -4.717000000
O     4.010000000    -3.920000000    -5.779000000
H     3.490000000    -3.364000000    -5.199000000
H     4.821000000    -3.430000000    -5.916000000
O     7.417000000    -2.458000000    -4.077000000
H     8.065000000    -1.969000000    -4.584000000
H     6.574000000    -2.105000000    -4.362000000
O     0.790000000    -3.221000000   -10.337000000
H     1.100000000    -2.414000000   -10.749000000
H     0.624000000    -2.976000000    -9.427000000
O     1.024000000     1.493000000    -8.285000000
H     0.783000000     0.584000000    -8.104000000
H     1.827000000     1.632000000    -7.784000000
O    -2.057000000    -0.579000000    -7.752000000
H    -2.142000000    -1.088000000    -8.558000000
H    -2.117000000     0.333000000    -8.038000000
O     5.063000000    -1.294000000    -4.877000000
H     4.254000000    -1.463000000    -4.394000000
H     4.920000000    -0.444000000    -5.294000000
O    -1.925000000    -3.565000000    -3.814000000
H    -2.737000000    -3.575000000    -4.320000000
H    -1.452000000    -2.797000000    -4.136000000
O     3.698000000    -1.553000000    -8.986000000
H     4.303000000    -2.242000000    -8.713000000
H     3.034000000    -1.530000000    -8.297000000
O    -1.066000000    -1.554000000    -5.382000000
H    -0.174000000    -1.215000000    -5.310000000
H    -1.370000000    -1.250000000    -6.238000000
O     4.797000000    -6.726000000    -5.524000000
H     4.501000000    -7.250000000    -4.780000000
H     4.437000000    -5.854000000    -5.361000000
O    -1.566000000    -6.407000000    -3.700000000
H    -1.907000000    -5.513000000    -3.683000000
H    -0.617000000    -6.303000000    -3.623000000
O     0.827000000    -3.914000000    -5.023000000
H     1.420000000    -3.274000000    -4.628000000
H    -0.007000000    -3.775000000    -4.574000000
O     6.094000000    -2.674000000    -7.406000000
H     6.862000000    -3.105000000    -7.031000000
H     6.361000000    -1.762000000    -7.517000000
O     5.124000000     1.178000000    -7.960000000
H     4.635000000     1.143000000    -7.138000000
H     5.248000000     2.113000000    -8.126000000
O     1.752000000    -1.183000000    -7.267000000
H     1.529000000    -0.865000000    -6.392000000
H     1.131000000    -1.893000000    -7.430000000
O     1.131000000    -6.494000000    -3.779000000
H     1.236000000    -5.571000000    -4.012000000
H     2.021000000    -6.845000000    -3.788000000
O     2.345000000    -5.330000000    -7.749000000
H     1.676000000    -4.865000000    -7.246000000
H     3.170000000    -4.923000000    -7.486000000
O     3.358000000     0.968000000    -5.447000000
H     2.619000000     0.360000000    -5.421000000
H     3.134000000     1.644000000    -4.808000000
O     0.165000000    -3.359000000    -7.706000000
H    -0.541000000    -3.876000000    -8.095000000
H     0.130000000    -3.571000000    -6.773000000
