215
-1452.52323
C    -5.364000000    -0.636000000    -1.338000000
H    -5.229000000     0.437000000    -1.231000000
C    -4.935000000    -1.490000000    -0.297000000
C    -4.904000000    -2.819000000    -0.473000000
H    -4.579000000    -3.440000000     0.358000000
C    -4.497000000    -0.809000000     1.029000000
O    -5.028000000     0.473000000     1.267000000
H    -3.434000000    -0.608000000     0.830000000
O    -4.570000000    -1.734000000     2.169000000
C    -3.419000000    -1.785000000     2.993000000
C    -2.466000000    -2.754000000     2.745000000
H    -2.587000000    -3.472000000     1.939000000
C    -1.237000000    -2.732000000     3.300000000
O    -0.342000000    -3.643000000     2.894000000
C    -0.959000000    -1.693000000     4.273000000
C     0.296000000    -1.698000000     5.095000000
H     0.106000000    -1.282000000     6.086000000
C     1.490000000    -1.074000000     4.398000000
C     1.759000000     0.249000000     4.672000000
H     1.083000000     0.820000000     5.302000000
H     0.530000000    -2.751000000     5.271000000
C    -1.937000000    -0.766000000     4.639000000
H    -1.620000000     0.008000000     5.334000000
C    -3.102000000    -0.706000000     3.843000000
C    -4.035000000     0.519000000     4.053000000
H    -3.824000000     1.042000000     4.989000000
H    -5.069000000     0.176000000     3.980000000
C    -3.632000000     1.498000000     2.898000000
C    -2.645000000     2.425000000     3.196000000
H    -2.134000000     2.412000000     4.155000000
C    -4.217000000     1.483000000     1.625000000
C    -3.871000000     2.422000000     0.677000000
H    -4.222000000     2.359000000    -0.350000000
C    -2.844000000     3.343000000     1.001000000
O    -2.313000000     4.072000000    -0.010000000
C    -1.059000000     3.617000000    -0.556000000
C    -0.960000000     3.512000000    -2.086000000
C     0.322000000     3.437000000    -2.666000000
H     1.206000000     3.450000000    -2.033000000
C    -2.155000000     3.298000000    -2.730000000
H    -3.116000000     3.262000000    -2.223000000
O    -0.010000000     4.497000000    -0.116000000
H    -0.861000000     2.621000000    -0.131000000
C    -2.279000000     3.417000000     2.293000000
C    -1.354000000     4.561000000     2.612000000
H    -1.379000000     4.760000000     3.685000000
H    -1.597000000     5.461000000     2.043000000
C     0.084000000     4.096000000     2.252000000
C     0.845000000     3.495000000     3.302000000
H     0.431000000     3.463000000     4.306000000
C     0.666000000     4.249000000     1.034000000
C     2.027000000     3.908000000     0.776000000
H     2.409000000     3.867000000    -0.241000000
C     2.722000000     3.323000000     1.802000000
O     4.031000000     2.987000000     1.527000000
C     4.145000000     1.590000000     1.211000000
C     5.078000000     1.416000000     0.023000000
C     5.218000000     2.372000000    -0.971000000
H     4.683000000     3.314000000    -0.893000000
C     5.832000000     0.226000000    -0.110000000
H     5.717000000    -0.646000000     0.529000000
O     4.642000000     0.878000000     2.381000000
H     3.087000000     1.324000000     1.070000000
C     2.135000000     3.078000000     3.037000000
C     2.929000000     2.492000000     4.155000000
H     2.562000000     2.761000000     5.147000000
H     3.978000000     2.789000000     4.085000000
C     2.798000000     0.948000000     4.038000000
C     3.653000000     0.277000000     3.173000000
C     3.339000000    -1.076000000     2.887000000
H     3.897000000    -1.658000000     2.158000000
C     2.256000000    -1.726000000     3.437000000
O     1.875000000    -2.963000000     3.030000000
C     0.731000000    -3.045000000     2.136000000
H     0.467000000    -2.023000000     1.826000000
C     1.087000000    -3.846000000     0.919000000
C     0.028000000    -4.545000000     0.282000000
H    -0.927000000    -4.496000000     0.798000000
C     2.350000000    -3.717000000     0.324000000
H     3.130000000    -3.114000000     0.782000000
C     2.524000000    -4.432000000    -0.926000000
O     3.724000000    -4.353000000    -1.596000000
C     1.497000000    -5.204000000    -1.441000000
H     1.757000000    -5.912000000    -2.224000000
C     0.260000000    -5.259000000    -0.857000000
O    -0.753000000    -5.904000000    -1.645000000
C    -1.970000000    -6.175000000    -1.159000000
C    -2.986000000    -5.320000000    -1.608000000
H    -2.752000000    -4.510000000    -2.293000000
C    -2.245000000    -7.229000000    -0.255000000
H    -1.522000000    -7.969000000     0.080000000
C    -3.568000000    -7.465000000     0.122000000
H    -3.716000000    -8.338000000     0.753000000
C    -4.611000000    -6.637000000    -0.362000000
H    -5.667000000    -6.721000000    -0.114000000
C    -4.320000000    -5.592000000    -1.248000000
O    -5.318000000    -4.792000000    -1.776000000
C    -5.394000000    -3.372000000    -1.686000000
C    -5.971000000    -2.527000000    -2.639000000
H    -6.417000000    -2.976000000    -3.523000000
C    -5.993000000    -1.216000000    -2.432000000
O    -6.702000000    -0.422000000    -3.296000000
C    -6.166000000     0.845000000    -3.634000000
C    -4.814000000     0.995000000    -4.045000000
H    -4.202000000     0.108000000    -4.186000000
C    -6.840000000     1.974000000    -3.233000000
H    -7.778000000     1.830000000    -2.702000000
C    -6.374000000     3.307000000    -3.477000000
H    -6.985000000     4.159000000    -3.187000000
C    -5.063000000     3.442000000    -3.938000000
H    -4.594000000     4.388000000    -4.197000000
C    -4.338000000     2.296000000    -4.189000000
O    -3.072000000     2.419000000    -4.756000000
C    -2.010000000     2.918000000    -4.048000000
C    -0.779000000     3.027000000    -4.705000000
H    -0.835000000     2.738000000    -5.752000000
C     0.339000000     3.295000000    -4.046000000
O     1.540000000     3.267000000    -4.742000000
C     2.660000000     3.863000000    -4.274000000
C     3.833000000     3.138000000    -3.778000000
H     3.766000000     2.053000000    -3.754000000
C     2.812000000     5.273000000    -4.434000000
H     2.001000000     5.928000000    -4.741000000
C     4.003000000     5.837000000    -4.015000000
H     4.114000000     6.917000000    -4.051000000
C     5.093000000     5.121000000    -3.573000000
H     5.970000000     5.716000000    -3.329000000
C     5.028000000     3.758000000    -3.474000000
O     6.074000000     2.935000000    -3.187000000
C     6.038000000     2.116000000    -2.072000000
C     6.693000000     0.915000000    -2.300000000
H     7.208000000     0.790000000    -3.248000000
C     6.551000000     0.003000000    -1.341000000
O     7.211000000    -1.240000000    -1.514000000
C     6.775000000    -2.382000000    -1.021000000
C     7.334000000    -2.956000000     0.175000000
H     8.155000000    -2.442000000     0.667000000
C     6.674000000    -3.997000000     0.836000000
H     7.045000000    -4.283000000     1.816000000
C     5.478000000    -4.559000000     0.236000000
H     4.885000000    -5.316000000     0.743000000
C     4.947000000    -4.013000000    -0.968000000
C     5.635000000    -2.986000000    -1.579000000
H     5.175000000    -2.575000000    -2.473000000
C    -0.684000000    -0.691000000    -1.927000000
H    -1.347000000    -1.036000000    -2.717000000
C    -1.348000000    -0.239000000    -0.851000000
H    -2.433000000    -0.293000000    -0.887000000
C    -0.629000000     0.064000000     0.330000000
H    -1.168000000     0.244000000     1.286000000
C     0.736000000     0.085000000     0.324000000
H     1.232000000     0.515000000     1.190000000
C     1.437000000    -0.319000000    -0.904000000
H     2.512000000    -0.188000000    -0.807000000
C     0.731000000    -0.744000000    -2.036000000
C     1.336000000    -1.229000000    -3.383000000
O     2.490000000    -1.135000000    -3.628000000
O     0.548000000    -1.669000000    -4.196000000
O    -1.888000000     1.531000000    -7.879000000
H    -1.749000000     0.769000000    -7.316000000
H    -1.009000000     1.782000000    -8.164000000
O     3.044000000    -5.969000000    -8.587000000
H     2.914000000    -5.406000000    -7.824000000
H     3.008000000    -5.372000000    -9.334000000
O     4.428000000    -2.246000000    -4.963000000
H     3.761000000    -2.258000000    -5.649000000
H     3.930000000    -2.183000000    -4.147000000
O     0.873000000     1.598000000    -8.031000000
H     1.006000000     1.086000000    -8.828000000
H     1.473000000     1.209000000    -7.394000000
O    -0.272000000    -4.450000000    -3.876000000
H    -0.135000000    -3.503000000    -3.872000000
H    -0.097000000    -4.721000000    -2.975000000
O     6.603000000    -1.091000000    -6.284000000
H     5.897000000    -1.465000000    -5.757000000
H     6.611000000    -0.163000000    -6.050000000
O     3.885000000    -0.192000000    -8.615000000
H     3.615000000    -0.298000000    -7.703000000
H     3.809000000    -1.069000000    -8.991000000
O     2.564000000     0.258000000    -6.154000000
H     2.470000000    -0.336000000    -5.409000000
H     3.410000000     0.684000000    -6.015000000
O     6.234000000    -4.473000000    -5.834000000
H     5.571000000    -4.390000000    -5.150000000
H     5.829000000    -4.085000000    -6.610000000
O    -3.172000000    -2.078000000    -6.379000000
H    -2.515000000    -1.566000000    -5.907000000
H    -2.850000000    -2.978000000    -6.336000000
O     2.650000000    -4.756000000    -6.272000000
H     2.237000000    -3.893000000    -6.267000000
H     3.097000000    -4.813000000    -5.427000000
O    -0.636000000    -2.096000000    -9.087000000
H    -0.380000000    -1.509000000    -9.797000000
H    -1.564000000    -2.274000000    -9.246000000
O     0.647000000    -2.644000000    -6.697000000
H     0.164000000    -2.162000000    -7.369000000
H     0.507000000    -2.142000000    -5.894000000
O     5.275000000    -2.976000000    -7.840000000
H     5.560000000    -2.119000000    -7.524000000
H     4.816000000    -2.790000000    -8.659000000
O     1.408000000    -3.814000000    -9.407000000
H     0.993000000    -4.648000000    -9.188000000
H     0.883000000    -3.158000000    -8.950000000
O     4.176000000    -5.249000000    -4.031000000
H     3.982000000    -5.290000000    -3.095000000
H     4.574000000    -6.097000000    -4.231000000
O     0.690000000    -7.312000000    -5.788000000
H     0.136000000    -6.738000000    -5.258000000
H     1.312000000    -6.720000000    -6.211000000
O    -1.389000000    -0.331000000    -5.198000000
H    -0.861000000    -0.901000000    -4.638000000
H    -1.051000000     0.549000000    -5.031000000
O    -2.076000000    -4.488000000    -5.662000000
H    -1.348000000    -4.496000000    -5.040000000
H    -1.677000000    -4.721000000    -6.500000000
