215
-1460.36172
C    -4.942000000    -0.219000000    -1.695000000
H    -4.946000000     0.856000000    -1.535000000
C    -4.861000000    -1.120000000    -0.618000000
C    -4.854000000    -2.504000000    -0.867000000
H    -4.650000000    -3.169000000    -0.032000000
C    -4.308000000    -0.533000000     0.689000000
O    -4.952000000     0.660000000     1.031000000
H    -3.230000000    -0.484000000     0.476000000
O    -4.471000000    -1.428000000     1.853000000
C    -3.378000000    -1.600000000     2.683000000
C    -2.495000000    -2.647000000     2.351000000
H    -2.728000000    -3.245000000     1.473000000
C    -1.361000000    -2.794000000     3.167000000
O    -0.480000000    -3.891000000     2.840000000
C    -1.084000000    -1.888000000     4.203000000
C     0.148000000    -2.019000000     5.122000000
H     0.035000000    -1.387000000     6.004000000
C     1.370000000    -1.420000000     4.503000000
C     1.643000000    -0.037000000     4.682000000
H     0.911000000     0.522000000     5.259000000
H     0.332000000    -3.041000000     5.461000000
C    -1.969000000    -0.845000000     4.469000000
H    -1.711000000    -0.114000000     5.232000000
C    -3.134000000    -0.702000000     3.674000000
C    -4.102000000     0.382000000     3.964000000
H    -4.016000000     0.722000000     4.998000000
H    -5.096000000    -0.040000000     3.800000000
C    -3.764000000     1.551000000     3.018000000
C    -2.755000000     2.434000000     3.439000000
H    -2.323000000     2.255000000     4.421000000
C    -4.268000000     1.691000000     1.720000000
C    -3.747000000     2.724000000     0.915000000
H    -3.940000000     2.778000000    -0.153000000
C    -2.799000000     3.551000000     1.378000000
O    -2.285000000     4.470000000     0.478000000
C    -1.047000000     4.140000000    -0.103000000
C    -1.092000000     4.210000000    -1.639000000
C     0.146000000     4.021000000    -2.342000000
H     1.101000000     3.820000000    -1.863000000
C    -2.251000000     4.390000000    -2.341000000
H    -3.232000000     4.426000000    -1.875000000
O     0.050000000     4.884000000     0.405000000
H    -0.914000000     3.052000000    -0.015000000
C    -2.280000000     3.421000000     2.630000000
C    -1.186000000     4.494000000     3.090000000
H    -1.386000000     4.579000000     4.160000000
H    -1.426000000     5.501000000     2.741000000
C     0.227000000     4.136000000     2.707000000
C     0.985000000     3.355000000     3.631000000
H     0.583000000     3.055000000     4.595000000
C     0.771000000     4.386000000     1.450000000
C     2.060000000     3.863000000     1.062000000
H     2.507000000     4.025000000     0.084000000
C     2.806000000     3.201000000     2.038000000
O     4.016000000     2.594000000     1.682000000
C     3.969000000     1.181000000     1.290000000
C     4.831000000     0.925000000     0.019000000
C     4.914000000     1.987000000    -0.946000000
H     4.472000000     2.950000000    -0.702000000
C     5.483000000    -0.300000000    -0.241000000
H     5.416000000    -1.073000000     0.519000000
O     4.400000000     0.382000000     2.436000000
H     2.939000000     0.964000000     0.970000000
C     2.243000000     2.892000000     3.260000000
C     2.990000000     2.078000000     4.277000000
H     2.566000000     2.387000000     5.235000000
H     4.046000000     2.358000000     4.279000000
C     2.803000000     0.546000000     4.137000000
C     3.502000000    -0.187000000     3.249000000
C     3.199000000    -1.526000000     3.002000000
H     3.606000000    -2.076000000     2.157000000
C     2.184000000    -2.154000000     3.593000000
O     1.869000000    -3.406000000     3.122000000
C     0.739000000    -3.501000000     2.205000000
H     0.565000000    -2.488000000     1.814000000
C     1.139000000    -4.355000000     0.963000000
C     0.093000000    -5.081000000     0.315000000
H    -0.951000000    -5.052000000     0.618000000
C     2.482000000    -4.492000000     0.543000000
H     3.201000000    -3.944000000     1.146000000
C     2.822000000    -5.396000000    -0.515000000
O     4.041000000    -5.496000000    -1.094000000
C     1.803000000    -6.169000000    -1.104000000
H     2.043000000    -6.817000000    -1.943000000
C     0.413000000    -5.954000000    -0.740000000
O    -0.563000000    -6.469000000    -1.592000000
C    -1.913000000    -6.296000000    -1.321000000
C    -2.647000000    -5.317000000    -2.059000000
H    -2.184000000    -4.928000000    -2.962000000
C    -2.516000000    -6.926000000    -0.241000000
H    -1.952000000    -7.638000000     0.356000000
C    -3.896000000    -6.738000000     0.060000000
H    -4.291000000    -7.271000000     0.921000000
C    -4.612000000    -5.857000000    -0.686000000
H    -5.662000000    -5.694000000    -0.459000000
C    -4.034000000    -5.188000000    -1.836000000
O    -4.802000000    -4.304000000    -2.580000000
C    -5.056000000    -2.989000000    -2.143000000
C    -5.297000000    -2.139000000    -3.176000000
H    -5.368000000    -2.421000000    -4.223000000
C    -5.106000000    -0.751000000    -2.950000000
O    -5.453000000    -0.017000000    -3.992000000
C    -5.528000000     1.394000000    -3.978000000
C    -4.362000000     2.155000000    -4.117000000
H    -3.474000000     1.581000000    -4.368000000
C    -6.732000000     1.961000000    -3.754000000
H    -7.664000000     1.475000000    -3.478000000
C    -6.817000000     3.308000000    -3.745000000
H    -7.690000000     3.832000000    -3.364000000
C    -5.718000000     4.133000000    -4.029000000
H    -5.888000000     5.206000000    -3.998000000
C    -4.463000000     3.537000000    -4.171000000
O    -3.408000000     4.352000000    -4.430000000
C    -2.214000000     4.281000000    -3.756000000
C    -1.038000000     4.093000000    -4.452000000
H    -1.023000000     3.916000000    -5.524000000
C     0.139000000     3.856000000    -3.714000000
O     1.279000000     3.751000000    -4.478000000
C     2.524000000     4.185000000    -4.117000000
C     3.469000000     3.231000000    -3.630000000
H     3.171000000     2.219000000    -3.369000000
C     2.878000000     5.517000000    -4.349000000
H     2.233000000     6.297000000    -4.746000000
C     4.223000000     5.829000000    -4.390000000
H     4.556000000     6.818000000    -4.693000000
C     5.220000000     4.858000000    -4.053000000
H     6.252000000     5.185000000    -4.141000000
C     4.817000000     3.584000000    -3.562000000
O     5.773000000     2.730000000    -3.160000000
C     5.572000000     1.760000000    -2.202000000
C     6.189000000     0.524000000    -2.398000000
H     6.786000000     0.363000000    -3.292000000
C     6.138000000    -0.551000000    -1.441000000
O     6.893000000    -1.701000000    -1.676000000
C     6.550000000    -2.859000000    -1.016000000
C     7.234000000    -3.282000000     0.145000000
H     8.008000000    -2.658000000     0.584000000
C     6.965000000    -4.523000000     0.750000000
H     7.554000000    -4.661000000     1.654000000
C     5.835000000    -5.205000000     0.396000000
H     5.539000000    -6.073000000     0.980000000
C     5.138000000    -4.797000000    -0.695000000
C     5.470000000    -3.589000000    -1.424000000
H     4.879000000    -3.261000000    -2.275000000
C    -0.643000000     0.422000000    -1.876000000
H    -1.177000000     0.715000000    -2.776000000
C    -1.198000000     0.651000000    -0.616000000
H    -2.207000000     1.023000000    -0.458000000
C    -0.534000000     0.286000000     0.494000000
H    -1.052000000     0.423000000     1.514000000
C     0.683000000    -0.336000000     0.348000000
H     1.248000000    -0.659000000     1.219000000
C     1.309000000    -0.525000000    -0.883000000
H     2.281000000    -1.009000000    -0.828000000
C     0.639000000    -0.119000000    -2.049000000
C     1.210000000    -0.255000000    -3.472000000
O     2.173000000    -0.997000000    -3.649000000
O     0.789000000     0.410000000    -4.399000000
O     1.445000000     2.629000000    -9.575000000
H     1.886000000     3.241000000   -10.165000000
H     2.157000000     2.193000000    -9.107000000
O    -2.761000000    -2.164000000    -5.379000000
H    -2.078000000    -1.856000000    -5.975000000
H    -2.603000000    -1.685000000    -4.565000000
O    -1.314000000     2.408000000    -8.755000000
H    -0.928000000     2.460000000    -7.881000000
H    -0.572000000     2.514000000    -9.351000000
O     5.683000000    -2.139000000    -4.830000000
H     4.738000000    -2.270000000    -4.753000000
H     6.050000000    -2.594000000    -4.071000000
O    -3.647000000    -1.376000000    -8.186000000
H    -4.018000000    -2.225000000    -8.428000000
H    -3.370000000    -1.486000000    -7.276000000
O     4.100000000     3.331000000    -7.055000000
H     3.887000000     2.551000000    -7.568000000
H     4.667000000     3.009000000    -6.354000000
O     2.757000000    -3.621000000    -3.480000000
H     2.323000000    -3.749000000    -2.636000000
H     2.762000000    -2.672000000    -3.605000000
O     6.117000000     0.236000000    -5.968000000
H     6.067000000    -0.666000000    -5.650000000
H     5.261000000     0.611000000    -5.758000000
O     3.824000000     1.274000000    -8.863000000
H     4.741000000     1.230000000    -9.134000000
H     3.499000000     0.380000000    -8.972000000
O     3.503000000     1.025000000    -5.453000000
H     2.854000000     1.329000000    -6.087000000
H     2.987000000     0.611000000    -4.761000000
O    -0.609000000    -0.993000000    -6.206000000
H    -0.187000000    -0.411000000    -5.572000000
H    -0.263000000    -0.714000000    -7.054000000
O     3.660000000    -3.777000000    -7.470000000
H     3.176000000    -3.061000000    -7.058000000
H     4.216000000    -4.124000000    -6.771000000
O     0.983000000    -0.199000000    -8.354000000
H     1.012000000     0.704000000    -8.038000000
H     1.413000000    -0.169000000    -9.208000000
O     2.335000000    -1.805000000    -6.304000000
H     1.924000000    -1.292000000    -6.999000000
H     2.140000000    -1.321000000    -5.501000000
O    -0.706000000    -2.526000000    -9.624000000
H    -0.178000000    -1.761000000    -9.396000000
H    -1.366000000    -2.189000000   -10.229000000
O     2.365000000    -6.757000000    -4.570000000
H     1.863000000    -5.943000000    -4.538000000
H     2.931000000    -6.660000000    -5.336000000
O     4.676000000    -5.157000000    -5.068000000
H     4.054000000    -4.728000000    -4.480000000
H     5.285000000    -5.609000000    -4.484000000
O     0.251000000    -4.370000000    -4.882000000
H    -0.199000000    -4.367000000    -5.727000000
H     0.482000000    -3.453000000    -4.731000000
O     0.557000000     1.989000000    -6.487000000
H     0.450000000     1.552000000    -5.642000000
H     0.972000000     2.825000000    -6.274000000
