215
-1449.46973
C    -4.825000000    -1.033000000    -1.657000000
H    -4.858000000     0.045000000    -1.791000000
C    -4.628000000    -1.698000000    -0.459000000
C    -4.537000000    -3.075000000    -0.473000000
H    -4.413000000    -3.584000000     0.479000000
C    -4.248000000    -0.929000000     0.775000000
O    -4.885000000     0.371000000     0.923000000
H    -3.163000000    -0.758000000     0.712000000
O    -4.392000000    -1.640000000     2.053000000
C    -3.406000000    -1.515000000     2.959000000
C    -2.573000000    -2.607000000     2.992000000
H    -2.823000000    -3.412000000     2.305000000
C    -1.402000000    -2.521000000     3.699000000
O    -0.342000000    -3.358000000     3.378000000
C    -1.084000000    -1.430000000     4.542000000
C     0.160000000    -1.266000000     5.320000000
H    -0.124000000    -0.663000000     6.185000000
C     1.245000000    -0.536000000     4.589000000
C     1.475000000     0.845000000     4.767000000
H     1.098000000     1.388000000     5.630000000
H     0.414000000    -2.228000000     5.770000000
C    -2.016000000    -0.383000000     4.538000000
H    -1.945000000     0.463000000     5.218000000
C    -3.162000000    -0.417000000     3.726000000
C    -4.144000000     0.753000000     3.720000000
H    -4.189000000     1.276000000     4.678000000
H    -5.154000000     0.389000000     3.521000000
C    -3.780000000     1.734000000     2.634000000
C    -2.945000000     2.874000000     2.876000000
H    -2.428000000     3.063000000     3.813000000
C    -4.182000000     1.516000000     1.304000000
C    -3.869000000     2.389000000     0.313000000
H    -4.212000000     2.059000000    -0.664000000
C    -3.134000000     3.491000000     0.588000000
O    -2.694000000     4.199000000    -0.456000000
C    -1.370000000     3.967000000    -0.940000000
C    -1.274000000     3.768000000    -2.460000000
C    -0.081000000     3.322000000    -3.109000000
H     0.881000000     3.218000000    -2.613000000
C    -2.396000000     3.865000000    -3.288000000
H    -3.306000000     4.260000000    -2.844000000
O    -0.354000000     4.837000000    -0.401000000
H    -1.164000000     2.937000000    -0.612000000
C    -2.663000000     3.724000000     1.852000000
C    -1.708000000     4.880000000     2.157000000
H    -1.909000000     5.031000000     3.220000000
H    -1.988000000     5.819000000     1.675000000
C    -0.186000000     4.475000000     2.026000000
C     0.538000000     3.947000000     3.130000000
H     0.093000000     3.920000000     4.122000000
C     0.376000000     4.489000000     0.723000000
C     1.730000000     4.147000000     0.565000000
H     2.146000000     4.158000000    -0.438000000
C     2.454000000     3.684000000     1.689000000
O     3.742000000     3.258000000     1.486000000
C     3.829000000     1.848000000     1.165000000
C     4.851000000     1.496000000     0.058000000
C     4.863000000     2.300000000    -1.106000000
H     4.092000000     3.059000000    -1.211000000
C     5.640000000     0.359000000     0.187000000
H     5.623000000    -0.187000000     1.127000000
O     4.278000000     1.228000000     2.366000000
H     2.844000000     1.457000000     0.870000000
C     1.883000000     3.647000000     2.914000000
C     2.656000000     3.023000000     4.072000000
H     2.303000000     3.452000000     5.011000000
H     3.716000000     3.282000000     4.028000000
C     2.471000000     1.487000000     4.039000000
C     3.319000000     0.725000000     3.215000000
C     3.229000000    -0.639000000     3.157000000
H     3.798000000    -1.238000000     2.450000000
C     2.154000000    -1.195000000     3.787000000
O     1.894000000    -2.482000000     3.461000000
C     0.806000000    -2.849000000     2.559000000
H     0.518000000    -1.883000000     2.119000000
C     1.231000000    -3.854000000     1.517000000
C     0.309000000    -4.662000000     0.813000000
H    -0.738000000    -4.528000000     1.076000000
C     2.543000000    -3.928000000     1.069000000
H     3.247000000    -3.196000000     1.455000000
C     3.012000000    -4.745000000     0.048000000
O     4.329000000    -4.614000000    -0.477000000
C     2.059000000    -5.589000000    -0.583000000
H     2.392000000    -6.361000000    -1.272000000
C     0.718000000    -5.508000000    -0.189000000
O    -0.183000000    -6.361000000    -0.800000000
C    -1.516000000    -6.483000000    -0.405000000
C    -2.439000000    -5.735000000    -1.111000000
H    -2.060000000    -4.954000000    -1.766000000
C    -1.984000000    -7.476000000     0.460000000
H    -1.232000000    -8.078000000     0.965000000
C    -3.377000000    -7.700000000     0.647000000
H    -3.703000000    -8.500000000     1.308000000
C    -4.274000000    -6.968000000    -0.137000000
H    -5.357000000    -7.023000000    -0.068000000
C    -3.789000000    -5.975000000    -1.027000000
O    -4.652000000    -5.216000000    -1.783000000
C    -4.670000000    -3.814000000    -1.698000000
C    -4.826000000    -3.080000000    -2.834000000
H    -4.780000000    -3.678000000    -3.741000000
C    -4.921000000    -1.697000000    -2.846000000
O    -4.859000000    -1.073000000    -4.101000000
C    -5.203000000     0.218000000    -4.342000000
C    -4.270000000     1.094000000    -4.957000000
H    -3.271000000     0.726000000    -5.181000000
C    -6.347000000     0.696000000    -3.803000000
H    -7.052000000     0.108000000    -3.221000000
C    -6.659000000     2.021000000    -3.895000000
H    -7.551000000     2.386000000    -3.392000000
C    -5.809000000     2.894000000    -4.522000000
H    -6.189000000     3.912000000    -4.488000000
C    -4.577000000     2.465000000    -5.000000000
O    -3.529000000     3.340000000    -5.338000000
C    -2.385000000     3.366000000    -4.595000000
C    -1.185000000     2.949000000    -5.239000000
H    -1.200000000     2.524000000    -6.239000000
C     0.006000000     2.988000000    -4.460000000
O     1.190000000     2.620000000    -5.010000000
C     2.382000000     3.274000000    -4.805000000
C     3.438000000     2.638000000    -4.251000000
H     3.332000000     1.560000000    -4.159000000
C     2.415000000     4.619000000    -5.016000000
H     1.555000000     5.153000000    -5.413000000
C     3.580000000     5.303000000    -4.661000000
H     3.636000000     6.346000000    -4.962000000
C     4.688000000     4.682000000    -4.067000000
H     5.593000000     5.253000000    -3.876000000
C     4.607000000     3.303000000    -3.903000000
O     5.696000000     2.576000000    -3.370000000
C     5.691000000     1.929000000    -2.171000000
C     6.563000000     0.813000000    -2.076000000
H     7.298000000     0.572000000    -2.840000000
C     6.528000000     0.083000000    -0.884000000
O     7.394000000    -0.939000000    -0.696000000
C     6.963000000    -2.159000000    -0.136000000
C     7.634000000    -2.624000000     0.981000000
H     8.480000000    -2.043000000     1.341000000
C     7.217000000    -3.718000000     1.664000000
H     7.681000000    -4.083000000     2.577000000
C     6.010000000    -4.313000000     1.250000000
H     5.627000000    -5.170000000     1.797000000
C     5.332000000    -3.837000000     0.103000000
C     5.746000000    -2.722000000    -0.557000000
H     5.297000000    -2.385000000    -1.488000000
C     0.148000000    -1.904000000    -1.298000000
H    -0.062000000    -2.855000000    -1.779000000
C    -0.737000000    -1.397000000    -0.364000000
H    -1.621000000    -1.924000000    -0.013000000
C    -0.346000000    -0.257000000     0.347000000
H    -1.011000000     0.161000000     1.058000000
C     0.742000000     0.444000000    -0.162000000
H     1.004000000     1.368000000     0.348000000
C     1.479000000     0.085000000    -1.247000000
H     2.341000000     0.647000000    -1.598000000
C     1.224000000    -1.234000000    -1.762000000
C     2.020000000    -1.779000000    -2.869000000
O     2.902000000    -1.167000000    -3.393000000
O     1.763000000    -2.868000000    -3.304000000
O     7.842000000    -4.149000000    -2.975000000
H     7.321000000    -4.821000000    -3.416000000
H     7.823000000    -3.401000000    -3.573000000
O    -1.954000000    -0.813000000    -7.172000000
H    -1.829000000    -1.607000000    -6.652000000
H    -1.073000000    -0.571000000    -7.455000000
O     2.939000000    -6.070000000    -8.064000000
H     2.867000000    -5.913000000    -7.122000000
H     2.180000000    -5.623000000    -8.439000000
O     5.250000000    -2.170000000    -4.019000000
H     5.021000000    -3.044000000    -3.703000000
H     4.510000000    -1.620000000    -3.762000000
O     0.302000000    -0.245000000    -8.578000000
H     0.088000000    -0.690000000    -9.398000000
H     0.929000000     0.432000000    -8.830000000
O    -0.367000000    -4.680000000    -3.533000000
H     0.354000000    -4.051000000    -3.488000000
H    -1.115000000    -4.165000000    -3.835000000
O     7.596000000    -1.730000000    -5.502000000
H     6.784000000    -1.901000000    -5.025000000
H     7.474000000    -0.858000000    -5.877000000
O     4.451000000     0.717000000    -7.892000000
H     4.104000000     1.526000000    -8.269000000
H     3.748000000     0.396000000    -7.327000000
O     2.595000000     0.009000000    -5.820000000
H     2.585000000    -0.426000000    -4.967000000
H     2.113000000     0.824000000    -5.679000000
O     6.757000000    -6.626000000    -3.742000000
H     6.891000000    -7.139000000    -2.945000000
H     5.862000000    -6.295000000    -3.666000000
O    -2.360000000    -4.134000000    -5.897000000
H    -2.246000000    -3.510000000    -5.180000000
H    -1.625000000    -3.960000000    -6.485000000
O     2.450000000    -5.948000000    -5.448000000
H     2.004000000    -5.101000000    -5.444000000
H     1.814000000    -6.556000000    -5.070000000
O     2.041000000    -2.966000000    -5.789000000
H     2.335000000    -2.148000000    -6.190000000
H     2.190000000    -2.840000000    -4.852000000
O     5.688000000    -4.220000000    -8.313000000
H     5.665000000    -4.293000000    -9.267000000
H     4.902000000    -4.680000000    -8.019000000
O     6.532000000     0.871000000    -6.287000000
H     5.840000000     0.584000000    -6.882000000
H     6.085000000     1.025000000    -5.455000000
O     4.273000000    -5.188000000    -3.425000000
H     3.823000000    -5.256000000    -4.267000000
H     3.729000000    -4.591000000    -2.910000000
O     0.223000000    -7.624000000    -4.155000000
H    -0.118000000    -8.064000000    -3.376000000
H     0.156000000    -6.691000000    -3.952000000
O    -1.692000000    -1.920000000    -4.074000000
H    -1.079000000    -1.762000000    -3.356000000
H    -2.332000000    -1.212000000    -4.002000000
O    -0.186000000    -2.945000000    -7.411000000
H     0.639000000    -3.000000000    -6.930000000
H     0.027000000    -2.440000000    -8.196000000
