215
-1469.29298
C    -4.223000000    -0.610000000    -1.797000000
H    -4.248000000     0.456000000    -1.585000000
C    -3.934000000    -1.510000000    -0.787000000
C    -3.745000000    -2.814000000    -1.040000000
H    -3.563000000    -3.478000000    -0.198000000
C    -3.632000000    -0.909000000     0.558000000
O    -4.543000000     0.232000000     0.869000000
H    -2.614000000    -0.490000000     0.546000000
O    -3.928000000    -1.811000000     1.627000000
C    -3.006000000    -1.909000000     2.644000000
C    -2.033000000    -2.987000000     2.590000000
H    -2.242000000    -3.812000000     1.915000000
C    -1.019000000    -3.104000000     3.500000000
O    -0.032000000    -4.048000000     3.306000000
C    -0.811000000    -2.014000000     4.321000000
C     0.452000000    -1.985000000     5.207000000
H     0.215000000    -1.609000000     6.204000000
C     1.614000000    -1.282000000     4.537000000
C     1.808000000     0.053000000     4.712000000
H     1.253000000     0.597000000     5.473000000
H     0.812000000    -2.989000000     5.442000000
C    -1.726000000    -0.976000000     4.442000000
H    -1.547000000    -0.265000000     5.245000000
C    -2.872000000    -0.939000000     3.596000000
C    -3.923000000     0.154000000     3.740000000
H    -3.915000000     0.473000000     4.785000000
H    -4.895000000    -0.274000000     3.487000000
C    -3.566000000     1.316000000     2.807000000
C    -2.970000000     2.409000000     3.365000000
H    -2.664000000     2.354000000     4.407000000
C    -4.016000000     1.344000000     1.448000000
C    -3.851000000     2.475000000     0.685000000
H    -4.185000000     2.476000000    -0.350000000
C    -3.116000000     3.531000000     1.187000000
O    -2.693000000     4.519000000     0.309000000
C    -1.385000000     4.330000000    -0.178000000
C    -1.360000000     4.624000000    -1.690000000
C    -0.142000000     4.843000000    -2.345000000
H     0.784000000     4.861000000    -1.777000000
C    -2.632000000     4.571000000    -2.377000000
H    -3.529000000     4.335000000    -1.810000000
O    -0.499000000     5.164000000     0.591000000
H    -1.031000000     3.328000000     0.106000000
C    -2.664000000     3.487000000     2.518000000
C    -1.659000000     4.480000000     3.058000000
H    -1.733000000     4.572000000     4.144000000
H    -1.991000000     5.428000000     2.631000000
C    -0.125000000     4.270000000     2.708000000
C     0.695000000     3.591000000     3.597000000
H     0.221000000     3.377000000     4.552000000
C     0.396000000     4.636000000     1.452000000
C     1.675000000     4.252000000     1.035000000
H     2.045000000     4.611000000     0.078000000
C     2.434000000     3.489000000     1.929000000
O     3.686000000     2.901000000     1.492000000
C     3.613000000     1.484000000     1.125000000
C     4.291000000     1.102000000    -0.172000000
C     4.431000000     2.162000000    -1.108000000
H     4.258000000     3.177000000    -0.760000000
C     4.670000000    -0.210000000    -0.519000000
H     4.758000000    -1.032000000     0.187000000
O     4.302000000     0.728000000     2.146000000
H     2.566000000     1.219000000     0.918000000
C     1.915000000     3.108000000     3.208000000
C     2.861000000     2.279000000     4.117000000
H     2.619000000     2.472000000     5.164000000
H     3.900000000     2.586000000     3.981000000
C     2.718000000     0.796000000     3.946000000
C     3.402000000     0.044000000     2.942000000
C     3.330000000    -1.367000000     2.929000000
H     3.955000000    -1.911000000     2.224000000
C     2.435000000    -2.062000000     3.712000000
O     2.241000000    -3.352000000     3.390000000
C     1.132000000    -3.610000000     2.509000000
H     0.925000000    -2.722000000     1.893000000
C     1.483000000    -4.663000000     1.475000000
C     0.444000000    -5.313000000     0.853000000
H    -0.568000000    -5.094000000     1.182000000
C     2.775000000    -4.872000000     1.005000000
H     3.628000000    -4.400000000     1.487000000
C     2.932000000    -5.714000000    -0.062000000
O     4.171000000    -5.909000000    -0.568000000
C     1.903000000    -6.449000000    -0.630000000
H     2.099000000    -7.140000000    -1.447000000
C     0.656000000    -6.283000000    -0.125000000
O    -0.364000000    -7.037000000    -0.686000000
C    -1.668000000    -6.742000000    -0.631000000
C    -2.169000000    -5.786000000    -1.523000000
H    -1.414000000    -5.246000000    -2.088000000
C    -2.472000000    -7.442000000     0.203000000
H    -2.108000000    -8.262000000     0.816000000
C    -3.842000000    -7.282000000     0.142000000
H    -4.442000000    -7.774000000     0.903000000
C    -4.366000000    -6.488000000    -0.906000000
H    -5.429000000    -6.405000000    -1.118000000
C    -3.525000000    -5.706000000    -1.702000000
O    -4.138000000    -4.743000000    -2.514000000
C    -4.019000000    -3.380000000    -2.307000000
C    -4.217000000    -2.474000000    -3.334000000
H    -4.277000000    -2.735000000    -4.387000000
C    -4.231000000    -1.074000000    -3.093000000
O    -4.334000000    -0.219000000    -4.204000000
C    -4.777000000     1.034000000    -4.334000000
C    -4.003000000     2.161000000    -4.225000000
H    -2.981000000     2.016000000    -3.884000000
C    -6.175000000     1.115000000    -4.659000000
H    -6.802000000     0.228000000    -4.706000000
C    -6.650000000     2.444000000    -4.875000000
H    -7.698000000     2.613000000    -5.112000000
C    -5.791000000     3.594000000    -4.903000000
H    -6.096000000     4.566000000    -5.283000000
C    -4.492000000     3.443000000    -4.535000000
O    -3.711000000     4.559000000    -4.473000000
C    -2.594000000     4.693000000    -3.762000000
C    -1.397000000     4.848000000    -4.482000000
H    -1.511000000     4.925000000    -5.560000000
C    -0.204000000     4.963000000    -3.770000000
O     0.915000000     5.308000000    -4.568000000
C     2.196000000     5.360000000    -4.005000000
C     2.889000000     4.166000000    -3.918000000
H     2.439000000     3.230000000    -4.240000000
C     2.714000000     6.538000000    -3.455000000
H     1.986000000     7.329000000    -3.294000000
C     3.934000000     6.448000000    -2.818000000
H     4.270000000     7.261000000    -2.180000000
C     4.653000000     5.281000000    -2.819000000
H     5.571000000     5.320000000    -2.239000000
C     4.173000000     4.121000000    -3.321000000
O     4.839000000     2.929000000    -3.377000000
C     4.749000000     1.899000000    -2.473000000
C     5.060000000     0.548000000    -2.853000000
H     5.390000000     0.252000000    -3.845000000
C     5.056000000    -0.475000000    -1.850000000
O     5.472000000    -1.777000000    -2.226000000
C     5.843000000    -2.826000000    -1.409000000
C     6.876000000    -2.776000000    -0.485000000
H     7.521000000    -1.916000000    -0.325000000
C     7.049000000    -3.854000000     0.415000000
H     7.861000000    -3.824000000     1.138000000
C     6.187000000    -4.967000000     0.321000000
H     6.220000000    -5.721000000     1.103000000
C     5.170000000    -4.963000000    -0.615000000
C     5.034000000    -3.940000000    -1.475000000
H     4.187000000    -4.070000000    -2.144000000
C     1.089000000    -1.525000000    -1.362000000
H     1.252000000    -2.598000000    -1.300000000
C     0.343000000    -0.891000000    -0.345000000
H    -0.010000000    -1.466000000     0.508000000
C     0.090000000     0.472000000    -0.423000000
H    -0.484000000     1.029000000     0.370000000
C     0.526000000     1.187000000    -1.546000000
H     0.394000000     2.256000000    -1.691000000
C     1.277000000     0.514000000    -2.582000000
H     1.604000000     1.135000000    -3.412000000
C     1.538000000    -0.850000000    -2.527000000
C     2.267000000    -1.663000000    -3.644000000
O     2.500000000    -1.103000000    -4.699000000
O     2.476000000    -2.854000000    -3.450000000
O     3.389000000    -2.173000000    -9.497000000
H     4.156000000    -1.626000000    -9.667000000
H     2.651000000    -1.659000000    -9.826000000
O    -0.396000000    -0.822000000    -6.373000000
H    -0.577000000    -0.558000000    -5.471000000
H     0.325000000    -1.447000000    -6.299000000
O     4.113000000    -3.676000000    -7.255000000
H     4.036000000    -3.240000000    -8.104000000
H     4.816000000    -4.314000000    -7.377000000
O    -2.405000000     0.482000000    -7.667000000
H    -1.682000000     0.062000000    -7.202000000
H    -2.756000000    -0.204000000    -8.234000000
O     4.879000000    -1.357000000    -5.794000000
H     4.809000000    -2.130000000    -6.355000000
H     4.046000000    -1.328000000    -5.322000000
O     1.809000000     3.665000000    -7.041000000
H     1.407000000     4.173000000    -6.336000000
H     1.832000000     2.768000000    -6.706000000
O     1.071000000    -5.305000000    -3.287000000
H     1.312000000    -4.383000000    -3.365000000
H     1.749000000    -5.773000000    -3.775000000
O     4.576000000     1.075000000    -7.186000000
H     3.648000000     1.054000000    -6.952000000
H     4.935000000     0.270000000    -6.814000000
O     1.750000000     1.053000000    -6.137000000
H     2.137000000     0.400000000    -5.554000000
H     1.491000000     0.558000000    -6.914000000
O     0.967000000    -7.937000000    -5.480000000
H     1.308000000    -7.107000000    -5.813000000
H     0.324000000    -7.684000000    -4.818000000
O     4.432000000    -7.105000000    -4.043000000
H     4.827000000    -7.382000000    -4.870000000
H     4.091000000    -6.229000000    -4.223000000
O    -1.336000000    -4.662000000    -4.692000000
H    -0.504000000    -5.047000000    -4.416000000
H    -1.092000000    -3.833000000    -5.104000000
O     0.921000000    -5.373000000    -6.959000000
H     0.164000000    -5.370000000    -7.545000000
H     1.354000000    -4.536000000    -7.122000000
O     1.751000000    -2.692000000    -6.724000000
H     2.030000000    -2.124000000    -6.006000000
H     2.566000000    -2.958000000    -7.150000000
O     6.406000000     2.127000000    -5.663000000
H     5.834000000     1.994000000    -6.419000000
H     5.828000000     2.480000000    -4.986000000
O    -0.225000000    -3.009000000    -8.769000000
H    -1.018000000    -2.833000000    -8.263000000
H     0.440000000    -2.442000000    -8.377000000
O     3.406000000    -4.877000000    -5.005000000
H     3.693000000    -4.329000000    -5.735000000
H     3.030000000    -4.261000000    -4.376000000
O    -1.330000000    -0.336000000    -3.873000000
H    -0.560000000    -0.222000000    -3.316000000
H    -2.071000000    -0.305000000    -3.267000000
O     7.127000000    -2.222000000    -4.623000000
H     6.319000000    -1.759000000    -4.845000000
H     6.916000000    -2.700000000    -3.820000000
