215
-1440.83499
C    -5.384000000    -0.978000000    -1.455000000
H    -6.018000000    -0.109000000    -1.295000000
C    -4.370000000    -1.388000000    -0.530000000
C    -3.508000000    -2.440000000    -0.900000000
H    -2.635000000    -2.626000000    -0.280000000
C    -4.127000000    -0.705000000     0.781000000
O    -5.119000000     0.352000000     1.066000000
H    -3.173000000    -0.168000000     0.672000000
O    -4.100000000    -1.697000000     1.792000000
C    -3.008000000    -1.691000000     2.628000000
C    -2.027000000    -2.654000000     2.445000000
H    -2.158000000    -3.352000000     1.622000000
C    -0.911000000    -2.627000000     3.286000000
O     0.028000000    -3.603000000     3.091000000
C    -0.834000000    -1.681000000     4.304000000
C     0.339000000    -1.710000000     5.274000000
H     0.090000000    -1.162000000     6.186000000
C     1.476000000    -0.948000000     4.707000000
C     1.491000000     0.402000000     4.809000000
H     0.775000000     0.881000000     5.472000000
H     0.660000000    -2.700000000     5.605000000
C    -1.776000000    -0.710000000     4.452000000
H    -1.696000000     0.033000000     5.242000000
C    -2.861000000    -0.696000000     3.614000000
C    -3.990000000     0.333000000     3.793000000
H    -3.912000000     0.762000000     4.794000000
H    -4.964000000    -0.160000000     3.821000000
C    -3.859000000     1.446000000     2.791000000
C    -3.080000000     2.489000000     3.125000000
H    -2.534000000     2.442000000     4.064000000
C    -4.561000000     1.515000000     1.609000000
C    -4.368000000     2.444000000     0.635000000
H    -4.782000000     2.177000000    -0.334000000
C    -3.425000000     3.438000000     0.920000000
O    -2.938000000     4.185000000    -0.085000000
C    -1.678000000     3.761000000    -0.561000000
C    -1.667000000     3.650000000    -2.103000000
C    -0.432000000     3.657000000    -2.856000000
H     0.470000000     4.018000000    -2.369000000
C    -2.866000000     3.301000000    -2.767000000
H    -3.797000000     3.411000000    -2.216000000
O    -0.663000000     4.738000000    -0.063000000
H    -1.511000000     2.754000000    -0.151000000
C    -2.896000000     3.524000000     2.169000000
C    -1.986000000     4.659000000     2.562000000
H    -1.954000000     4.895000000     3.628000000
H    -2.169000000     5.527000000     1.924000000
C    -0.546000000     4.233000000     2.307000000
C     0.168000000     3.609000000     3.321000000
H    -0.338000000     3.428000000     4.266000000
C     0.045000000     4.339000000     1.049000000
C     1.285000000     3.892000000     0.832000000
H     1.706000000     3.953000000    -0.168000000
C     2.086000000     3.319000000     1.844000000
O     3.364000000     3.042000000     1.524000000
C     3.621000000     1.682000000     1.234000000
C     4.554000000     1.587000000     0.042000000
C     4.688000000     2.597000000    -0.986000000
H     4.212000000     3.557000000    -0.806000000
C     5.153000000     0.295000000    -0.159000000
H     5.030000000    -0.473000000     0.601000000
O     4.231000000     1.117000000     2.443000000
H     2.689000000     1.113000000     1.101000000
C     1.498000000     3.227000000     3.135000000
C     2.342000000     2.707000000     4.282000000
H     1.928000000     3.030000000     5.239000000
H     3.364000000     3.053000000     4.451000000
C     2.470000000     1.166000000     4.124000000
C     3.467000000     0.501000000     3.361000000
C     3.458000000    -0.898000000     3.228000000
H     4.168000000    -1.460000000     2.627000000
C     2.375000000    -1.600000000     3.841000000
O     2.242000000    -2.957000000     3.562000000
C     1.338000000    -3.354000000     2.549000000
H     1.257000000    -2.458000000     1.916000000
C     1.875000000    -4.383000000     1.574000000
C     0.987000000    -5.047000000     0.682000000
H    -0.086000000    -4.917000000     0.798000000
C     3.220000000    -4.512000000     1.362000000
H     3.902000000    -4.034000000     2.060000000
C     3.730000000    -5.322000000     0.364000000
O     5.109000000    -5.320000000     0.117000000
C     2.854000000    -5.991000000    -0.438000000
H     3.194000000    -6.626000000    -1.252000000
C     1.473000000    -5.933000000    -0.240000000
O     0.653000000    -6.813000000    -0.985000000
C    -0.689000000    -6.628000000    -1.030000000
C    -1.177000000    -5.673000000    -1.899000000
H    -0.565000000    -5.128000000    -2.612000000
C    -1.500000000    -7.195000000    -0.086000000
H    -1.155000000    -8.033000000     0.514000000
C    -2.850000000    -6.770000000    -0.003000000
H    -3.459000000    -7.110000000     0.831000000
C    -3.280000000    -5.719000000    -0.748000000
H    -4.317000000    -5.401000000    -0.677000000
C    -2.461000000    -5.133000000    -1.701000000
O    -2.825000000    -4.047000000    -2.501000000
C    -3.697000000    -3.075000000    -2.141000000
C    -4.685000000    -2.603000000    -3.057000000
H    -4.917000000    -3.076000000    -4.008000000
C    -5.586000000    -1.598000000    -2.657000000
O    -6.470000000    -1.081000000    -3.561000000
C    -6.319000000     0.209000000    -4.053000000
C    -5.121000000     0.877000000    -4.106000000
H    -4.208000000     0.396000000    -3.764000000
C    -7.434000000     0.724000000    -4.699000000
H    -8.397000000     0.219000000    -4.697000000
C    -7.472000000     1.962000000    -5.340000000
H    -8.353000000     2.270000000    -5.897000000
C    -6.256000000     2.717000000    -5.244000000
H    -6.169000000     3.680000000    -5.741000000
C    -5.089000000     2.182000000    -4.688000000
O    -3.913000000     2.867000000    -4.922000000
C    -2.806000000     3.077000000    -4.168000000
C    -1.599000000     3.133000000    -4.835000000
H    -1.508000000     2.991000000    -5.909000000
C    -0.388000000     3.402000000    -4.210000000
O     0.846000000     3.420000000    -4.918000000
C     2.013000000     4.072000000    -4.427000000
C     3.118000000     3.285000000    -4.063000000
H     3.054000000     2.202000000    -3.998000000
C     2.039000000     5.481000000    -4.208000000
H     1.130000000     6.059000000    -4.355000000
C     3.195000000     6.115000000    -3.699000000
H     3.182000000     7.193000000    -3.560000000
C     4.258000000     5.305000000    -3.363000000
H     5.171000000     5.690000000    -2.917000000
C     4.284000000     3.941000000    -3.530000000
O     5.466000000     3.251000000    -3.098000000
C     5.391000000     2.251000000    -2.109000000
C     6.022000000     1.054000000    -2.238000000
H     6.600000000     0.840000000    -3.134000000
C     5.826000000     0.086000000    -1.305000000
O     6.552000000    -1.075000000    -1.556000000
C     6.731000000    -2.131000000    -0.625000000
C     7.743000000    -2.044000000     0.348000000
H     8.526000000    -1.290000000     0.366000000
C     7.841000000    -3.169000000     1.246000000
H     8.559000000    -3.187000000     2.062000000
C     6.925000000    -4.219000000     1.175000000
H     6.969000000    -5.031000000     1.896000000
C     5.908000000    -4.245000000     0.197000000
C     5.846000000    -3.280000000    -0.712000000
H     5.115000000    -3.337000000    -1.515000000
C     0.230000000    -2.009000000    -1.315000000
H    -0.058000000    -3.051000000    -1.426000000
C     0.072000000    -1.181000000    -0.115000000
H    -0.523000000    -1.559000000     0.713000000
C     0.608000000     0.098000000    -0.096000000
H     0.466000000     0.765000000     0.743000000
C     1.288000000     0.624000000    -1.209000000
H     1.729000000     1.613000000    -1.112000000
C     1.472000000    -0.155000000    -2.343000000
H     2.032000000     0.200000000    -3.204000000
C     0.934000000    -1.433000000    -2.400000000
C     1.317000000    -2.284000000    -3.628000000
O     1.831000000    -1.782000000    -4.584000000
O     1.145000000    -3.507000000    -3.581000000
O     3.463000000    -3.491000000    -8.874000000
H     2.988000000    -2.820000000    -9.363000000
H     3.875000000    -4.032000000    -9.548000000
O    -0.578000000    -2.902000000    -9.347000000
H    -0.204000000    -2.218000000    -9.902000000
H    -0.031000000    -2.900000000    -8.562000000
O    -2.262000000    -0.514000000    -5.760000000
H    -2.170000000    -0.239000000    -4.848000000
H    -2.415000000    -1.458000000    -5.711000000
O     4.534000000    -4.744000000    -6.298000000
H     5.408000000    -4.821000000    -6.683000000
H     3.943000000    -4.718000000    -7.051000000
O    -1.642000000    -0.403000000    -8.374000000
H    -1.945000000    -0.310000000    -7.470000000
H    -1.668000000    -1.345000000    -8.540000000
O     3.285000000    -0.268000000    -7.025000000
H     2.334000000    -0.309000000    -6.924000000
H     3.626000000    -0.775000000    -6.288000000
O     1.177000000     2.466000000    -8.018000000
H     1.756000000     2.021000000    -8.638000000
H     1.135000000     1.877000000    -7.265000000
O     0.461000000    -5.658000000    -5.237000000
H     0.685000000    -5.292000000    -4.381000000
H     0.420000000    -4.899000000    -5.819000000
O     0.513000000     0.266000000    -6.052000000
H     0.869000000    -0.397000000    -5.460000000
H    -0.437000000     0.179000000    -5.964000000
O    -0.950000000    -7.762000000    -6.456000000
H    -0.380000000    -7.053000000    -6.160000000
H    -1.184000000    -8.232000000    -5.656000000
O     5.647000000    -6.168000000    -2.951000000
H     5.670000000    -7.027000000    -3.373000000
H     4.918000000    -5.713000000    -3.374000000
O    -2.745000000    -3.256000000    -6.225000000
H    -2.552000000    -3.817000000    -6.976000000
H    -2.930000000    -3.867000000    -5.512000000
O     1.065000000    -5.919000000    -8.263000000
H     1.804000000    -6.457000000    -7.980000000
H     0.859000000    -5.376000000    -7.503000000
O     1.356000000    -3.376000000    -6.809000000
H     1.374000000    -2.820000000    -6.031000000
H     2.239000000    -3.308000000    -7.173000000
O     6.287000000    -0.645000000    -5.846000000
H     5.518000000    -0.601000000    -5.278000000
H     6.853000000    -1.298000000    -5.434000000
O     0.531000000    -8.556000000    -3.842000000
H     1.229000000    -8.854000000    -4.425000000
H     0.485000000    -7.611000000    -3.985000000
O     3.363000000    -5.211000000    -3.853000000
H     3.481000000    -5.012000000    -4.782000000
H     2.620000000    -4.670000000    -3.585000000
O    -1.574000000     0.009000000    -2.924000000
H    -1.237000000    -0.297000000    -2.082000000
H    -0.989000000     0.727000000    -3.168000000
O     4.342000000    -1.154000000    -4.144000000
H     4.788000000    -1.629000000    -3.444000000
H     3.448000000    -1.497000000    -4.135000000
