215
-1456.02697
C    -4.757000000    -1.220000000    -1.791000000
H    -4.980000000    -0.158000000    -1.857000000
C    -4.274000000    -1.840000000    -0.654000000
C    -3.894000000    -3.188000000    -0.762000000
H    -3.371000000    -3.676000000     0.057000000
C    -4.051000000    -0.999000000     0.686000000
O    -5.142000000    -0.057000000     0.872000000
H    -3.108000000    -0.473000000     0.895000000
O    -4.014000000    -2.018000000     1.759000000
C    -3.005000000    -1.926000000     2.681000000
C    -1.946000000    -2.854000000     2.642000000
H    -1.999000000    -3.713000000     1.978000000
C    -0.903000000    -2.778000000     3.566000000
O     0.033000000    -3.680000000     3.389000000
C    -0.931000000    -1.882000000     4.576000000
C     0.321000000    -1.437000000     5.388000000
H    -0.043000000    -0.788000000     6.187000000
C     1.353000000    -0.744000000     4.599000000
C     1.408000000     0.703000000     4.610000000
H     0.738000000     1.201000000     5.306000000
H     0.838000000    -2.294000000     5.825000000
C    -1.941000000    -0.935000000     4.543000000
H    -2.005000000    -0.048000000     5.167000000
C    -3.043000000    -0.982000000     3.666000000
C    -4.177000000     0.034000000     3.711000000
H    -4.255000000     0.352000000     4.752000000
H    -5.186000000    -0.379000000     3.654000000
C    -4.037000000     1.176000000     2.735000000
C    -3.212000000     2.313000000     3.082000000
H    -2.731000000     2.239000000     4.054000000
C    -4.605000000     1.114000000     1.444000000
C    -4.430000000     2.117000000     0.473000000
H    -4.828000000     2.021000000    -0.534000000
C    -3.615000000     3.182000000     0.803000000
O    -3.209000000     3.995000000    -0.226000000
C    -1.859000000     3.724000000    -0.828000000
C    -1.761000000     3.842000000    -2.352000000
C    -0.542000000     4.149000000    -2.974000000
H     0.304000000     4.424000000    -2.349000000
C    -2.846000000     3.525000000    -3.184000000
H    -3.845000000     3.403000000    -2.774000000
O    -0.844000000     4.555000000    -0.336000000
H    -1.666000000     2.654000000    -0.658000000
C    -3.031000000     3.252000000     2.074000000
C    -2.129000000     4.489000000     2.399000000
H    -2.236000000     4.874000000     3.416000000
H    -2.353000000     5.292000000     1.694000000
C    -0.658000000     4.235000000     2.109000000
C     0.154000000     3.766000000     3.155000000
H    -0.080000000     3.541000000     4.193000000
C    -0.137000000     4.267000000     0.818000000
C     1.211000000     4.069000000     0.609000000
H     1.710000000     4.155000000    -0.353000000
C     2.037000000     3.693000000     1.639000000
O     3.326000000     3.268000000     1.323000000
C     3.453000000     1.854000000     1.097000000
C     4.282000000     1.645000000    -0.203000000
C     4.441000000     2.645000000    -1.160000000
H     4.041000000     3.640000000    -0.981000000
C     4.850000000     0.345000000    -0.425000000
H     4.716000000    -0.511000000     0.231000000
O     4.100000000     1.210000000     2.225000000
H     2.471000000     1.420000000     0.858000000
C     1.488000000     3.547000000     2.904000000
C     2.278000000     2.946000000     3.989000000
H     2.018000000     3.301000000     4.989000000
H     3.332000000     3.209000000     3.878000000
C     2.345000000     1.410000000     3.889000000
C     3.205000000     0.689000000     3.085000000
C     3.149000000    -0.714000000     3.020000000
H     3.821000000    -1.301000000     2.399000000
C     2.236000000    -1.435000000     3.783000000
O     2.150000000    -2.797000000     3.716000000
C     1.247000000    -3.219000000     2.691000000
H     0.909000000    -2.391000000     2.051000000
C     1.917000000    -4.239000000     1.810000000
C     1.068000000    -4.900000000     0.967000000
H    -0.001000000    -4.762000000     1.106000000
C     3.338000000    -4.479000000     1.636000000
H     4.025000000    -4.055000000     2.364000000
C     3.813000000    -5.138000000     0.525000000
O     5.183000000    -5.269000000     0.349000000
C     2.858000000    -5.753000000    -0.379000000
H     3.155000000    -6.504000000    -1.107000000
C     1.504000000    -5.657000000    -0.105000000
O     0.639000000    -6.234000000    -1.018000000
C    -0.713000000    -6.368000000    -0.758000000
C    -1.596000000    -5.626000000    -1.538000000
H    -1.225000000    -5.060000000    -2.389000000
C    -1.161000000    -7.292000000     0.153000000
H    -0.452000000    -7.968000000     0.623000000
C    -2.490000000    -7.461000000     0.482000000
H    -2.936000000    -8.205000000     1.136000000
C    -3.347000000    -6.683000000    -0.232000000
H    -4.402000000    -6.848000000    -0.030000000
C    -2.925000000    -5.804000000    -1.218000000
O    -3.883000000    -5.208000000    -1.936000000
C    -4.169000000    -3.860000000    -1.893000000
C    -4.591000000    -3.294000000    -3.031000000
H    -4.608000000    -3.925000000    -3.916000000
C    -4.864000000    -1.927000000    -3.006000000
O    -5.356000000    -1.322000000    -4.178000000
C    -5.607000000     0.071000000    -4.206000000
C    -4.514000000     0.791000000    -4.681000000
H    -3.537000000     0.346000000    -4.847000000
C    -6.855000000     0.634000000    -3.804000000
H    -7.663000000    -0.025000000    -3.494000000
C    -6.950000000     1.999000000    -3.887000000
H    -7.856000000     2.496000000    -3.550000000
C    -5.863000000     2.761000000    -4.421000000
H    -5.897000000     3.842000000    -4.528000000
C    -4.689000000     2.170000000    -4.828000000
O    -3.723000000     3.016000000    -5.327000000
C    -2.617000000     3.338000000    -4.562000000
C    -1.402000000     3.709000000    -5.155000000
H    -1.251000000     3.746000000    -6.230000000
C    -0.376000000     4.074000000    -4.354000000
O     0.820000000     4.333000000    -4.884000000
C     1.917000000     4.664000000    -4.169000000
C     2.996000000     3.791000000    -4.031000000
H     2.843000000     2.799000000    -4.449000000
C     2.032000000     5.926000000    -3.675000000
H     1.247000000     6.650000000    -3.876000000
C     3.252000000     6.407000000    -3.224000000
H     3.348000000     7.469000000    -3.016000000
C     4.354000000     5.495000000    -3.014000000
H     5.325000000     5.772000000    -2.611000000
C     4.191000000     4.153000000    -3.481000000
O     5.213000000     3.278000000    -3.363000000
C     5.214000000     2.368000000    -2.243000000
C     5.834000000     1.164000000    -2.416000000
H     6.358000000     1.094000000    -3.366000000
C     5.643000000     0.125000000    -1.496000000
O     6.281000000    -1.054000000    -1.769000000
C     6.560000000    -2.009000000    -0.810000000
C     7.688000000    -1.902000000    -0.032000000
H     8.368000000    -1.083000000    -0.250000000
C     8.080000000    -2.990000000     0.733000000
H     8.987000000    -2.995000000     1.332000000
C     7.250000000    -4.141000000     0.790000000
H     7.503000000    -4.996000000     1.413000000
C     6.018000000    -4.178000000     0.181000000
C     5.723000000    -3.098000000    -0.637000000
H     4.740000000    -3.182000000    -1.096000000
C     2.071000000    -1.965000000    -1.804000000
H     2.339000000    -3.018000000    -1.786000000
C     1.325000000    -1.493000000    -0.700000000
H     0.934000000    -2.151000000     0.072000000
C     0.954000000    -0.173000000    -0.613000000
H     0.349000000     0.215000000     0.256000000
C     1.432000000     0.717000000    -1.581000000
H     1.214000000     1.782000000    -1.609000000
C     2.113000000     0.299000000    -2.713000000
H     2.475000000     1.079000000    -3.378000000
C     2.469000000    -1.050000000    -2.764000000
C     3.155000000    -1.584000000    -4.025000000
O     3.421000000    -0.789000000    -4.864000000
O     3.435000000    -2.742000000    -4.069000000
O    -0.441000000    -2.997000000    -7.470000000
H    -0.501000000    -3.290000000    -8.379000000
H     0.493000000    -3.044000000    -7.265000000
O    -1.031000000    -0.146000000    -5.411000000
H    -1.084000000    -0.116000000    -4.455000000
H    -1.675000000    -0.807000000    -5.666000000
O     4.640000000    -5.134000000    -7.174000000
H     5.231000000    -4.610000000    -7.715000000
H     3.764000000    -4.897000000    -7.479000000
O     4.331000000    -0.563000000    -8.069000000
H     4.136000000    -0.305000000    -7.169000000
H     5.093000000    -1.138000000    -7.994000000
O     1.711000000     2.865000000    -8.091000000
H     1.450000000     2.344000000    -8.849000000
H     1.801000000     2.229000000    -7.381000000
O     6.725000000    -3.333000000    -8.061000000
H     7.225000000    -3.376000000    -7.246000000
H     7.384000000    -3.176000000    -8.738000000
O     2.513000000    -5.485000000    -4.047000000
H     2.729000000    -4.567000000    -3.879000000
H     2.768000000    -5.628000000    -4.958000000
O     8.665000000    -0.085000000    -3.023000000
H     8.029000000    -0.664000000    -2.602000000
H     9.282000000    -0.678000000    -3.452000000
O     4.489000000     3.273000000    -8.140000000
H     4.693000000     2.686000000    -7.412000000
H     3.553000000     3.145000000    -8.296000000
O     1.577000000     0.592000000    -6.396000000
H     2.205000000     0.025000000    -5.949000000
H     0.724000000     0.310000000    -6.068000000
O    -0.466000000    -5.806000000    -4.726000000
H    -0.459000000    -6.360000000    -5.506000000
H     0.357000000    -6.007000000    -4.280000000
O    -2.140000000    -3.627000000    -5.421000000
H    -1.558000000    -3.490000000    -6.168000000
H    -1.657000000    -4.222000000    -4.847000000
O     2.434000000    -2.997000000    -7.275000000
H     2.831000000    -2.917000000    -6.407000000
H     3.056000000    -2.567000000    -7.862000000
O     4.644000000     1.395000000    -5.848000000
H     4.048000000     0.708000000    -5.551000000
H     5.508000000     1.105000000    -5.556000000
O     8.567000000    -0.893000000    -6.388000000
H     7.756000000    -1.248000000    -6.024000000
H     8.278000000    -0.231000000    -7.015000000
O     7.883000000    -4.685000000    -3.230000000
H     6.927000000    -4.723000000    -3.262000000
H     8.120000000    -5.254000000    -2.498000000
O     5.353000000    -4.332000000    -4.580000000
H     4.998000000    -4.841000000    -5.309000000
H     4.625000000    -3.778000000    -4.299000000
O    -1.653000000     0.791000000    -2.774000000
H    -1.250000000     0.033000000    -2.351000000
H    -0.943000000     1.428000000    -2.851000000
O     5.937000000    -1.794000000    -5.671000000
H     6.042000000    -2.685000000    -5.336000000
H     5.320000000    -1.382000000    -5.066000000
