215
-1454.25930
C    -4.693000000    -1.201000000    -1.687000000
H    -4.619000000    -0.129000000    -1.855000000
C    -4.389000000    -1.709000000    -0.396000000
C    -4.210000000    -3.112000000    -0.268000000
H    -3.814000000    -3.463000000     0.682000000
C    -3.971000000    -0.757000000     0.712000000
O    -4.830000000     0.471000000     0.657000000
H    -2.890000000    -0.573000000     0.628000000
O    -4.066000000    -1.434000000     1.956000000
C    -3.044000000    -1.262000000     2.879000000
C    -2.151000000    -2.291000000     3.036000000
H    -2.170000000    -3.108000000     2.320000000
C    -1.082000000    -2.193000000     3.935000000
O    -0.128000000    -3.129000000     3.844000000
C    -0.982000000    -0.992000000     4.666000000
C     0.217000000    -0.722000000     5.534000000
H    -0.049000000     0.061000000     6.246000000
C     1.401000000    -0.137000000     4.797000000
C     1.533000000     1.246000000     4.673000000
H     0.829000000     1.904000000     5.175000000
H     0.504000000    -1.649000000     6.035000000
C    -1.932000000    -0.010000000     4.554000000
H    -1.832000000     0.895000000     5.148000000
C    -2.962000000    -0.109000000     3.593000000
C    -3.972000000     0.980000000     3.411000000
H    -4.067000000     1.522000000     4.355000000
H    -4.974000000     0.589000000     3.220000000
C    -3.689000000     1.942000000     2.240000000
C    -2.896000000     3.051000000     2.438000000
H    -2.415000000     3.256000000     3.391000000
C    -4.222000000     1.693000000     0.926000000
C    -3.968000000     2.634000000    -0.078000000
H    -4.277000000     2.351000000    -1.081000000
C    -3.137000000     3.719000000     0.063000000
O    -2.679000000     4.440000000    -0.987000000
C    -1.404000000     3.975000000    -1.500000000
C    -1.444000000     3.743000000    -3.021000000
C    -0.245000000     3.968000000    -3.748000000
H     0.615000000     4.431000000    -3.270000000
C    -2.586000000     3.289000000    -3.686000000
H    -3.502000000     3.107000000    -3.130000000
O    -0.338000000     4.805000000    -1.061000000
H    -1.380000000     2.926000000    -1.172000000
C    -2.568000000     3.921000000     1.340000000
C    -1.618000000     5.100000000     1.615000000
H    -1.718000000     5.399000000     2.660000000
H    -1.805000000     5.948000000     0.953000000
C    -0.236000000     4.543000000     1.388000000
C     0.550000000     4.268000000     2.495000000
H     0.148000000     4.329000000     3.503000000
C     0.357000000     4.494000000     0.089000000
C     1.676000000     4.139000000    -0.054000000
H     2.250000000     4.184000000    -0.977000000
C     2.423000000     3.746000000     1.068000000
O     3.673000000     3.311000000     0.875000000
C     3.798000000     1.827000000     1.046000000
C     4.621000000     1.261000000    -0.091000000
C     4.242000000     1.706000000    -1.452000000
H     3.354000000     2.322000000    -1.577000000
C     5.548000000     0.199000000     0.067000000
H     5.829000000    -0.198000000     1.039000000
O     4.390000000     1.481000000     2.316000000
H     2.767000000     1.460000000     0.941000000
C     1.852000000     3.908000000     2.341000000
C     2.616000000     3.395000000     3.668000000
H     2.223000000     3.906000000     4.550000000
H     3.650000000     3.705000000     3.503000000
C     2.568000000     1.871000000     3.872000000
C     3.427000000     1.011000000     3.236000000
C     3.396000000    -0.298000000     3.353000000
H     4.162000000    -0.900000000     2.871000000
C     2.351000000    -0.915000000     4.095000000
O     2.139000000    -2.320000000     3.972000000
C     1.037000000    -2.794000000     3.081000000
H     0.888000000    -1.968000000     2.370000000
C     1.425000000    -4.037000000     2.311000000
C     0.512000000    -5.025000000     1.941000000
H    -0.527000000    -4.966000000     2.253000000
C     2.732000000    -4.049000000     1.774000000
H     3.425000000    -3.217000000     1.876000000
C     3.146000000    -5.126000000     0.914000000
O     4.331000000    -5.253000000     0.270000000
C     2.177000000    -6.053000000     0.486000000
H     2.348000000    -6.863000000    -0.219000000
C     0.906000000    -6.012000000     0.968000000
O    -0.123000000    -6.888000000     0.525000000
C    -1.482000000    -6.733000000     0.766000000
C    -2.223000000    -6.091000000    -0.295000000
H    -1.700000000    -5.635000000    -1.131000000
C    -2.122000000    -7.080000000     1.963000000
H    -1.440000000    -7.499000000     2.699000000
C    -3.533000000    -6.908000000     2.018000000
H    -4.148000000    -7.164000000     2.877000000
C    -4.237000000    -6.414000000     0.886000000
H    -5.324000000    -6.410000000     0.899000000
C    -3.591000000    -5.893000000    -0.237000000
O    -4.316000000    -5.328000000    -1.222000000
C    -4.373000000    -3.955000000    -1.381000000
C    -4.868000000    -3.379000000    -2.602000000
H    -5.056000000    -4.022000000    -3.458000000
C    -4.847000000    -2.030000000    -2.760000000
O    -5.225000000    -1.487000000    -4.014000000
C    -5.407000000    -0.199000000    -4.299000000
C    -4.429000000     0.491000000    -4.974000000
H    -3.504000000    -0.009000000    -5.250000000
C    -6.630000000     0.363000000    -4.013000000
H    -7.379000000    -0.212000000    -3.474000000
C    -6.901000000     1.706000000    -4.333000000
H    -7.850000000     2.132000000    -4.017000000
C    -5.857000000     2.450000000    -4.939000000
H    -6.052000000     3.487000000    -5.200000000
C    -4.618000000     1.872000000    -5.221000000
O    -3.648000000     2.690000000    -5.770000000
C    -2.540000000     3.033000000    -5.054000000
C    -1.285000000     3.153000000    -5.702000000
H    -1.146000000     3.015000000    -6.771000000
C    -0.105000000     3.557000000    -5.079000000
O     0.989000000     3.974000000    -5.870000000
C     2.221000000     4.005000000    -5.272000000
C     2.749000000     2.777000000    -4.826000000
H     2.263000000     1.863000000    -5.157000000
C     2.824000000     5.195000000    -4.903000000
H     2.283000000     6.100000000    -5.167000000
C     4.043000000     5.146000000    -4.205000000
H     4.604000000     6.066000000    -4.061000000
C     4.630000000     3.912000000    -3.889000000
H     5.597000000     3.913000000    -3.392000000
C     3.993000000     2.748000000    -4.169000000
O     4.504000000     1.558000000    -3.805000000
C     4.903000000     1.207000000    -2.511000000
C     5.820000000     0.201000000    -2.332000000
H     6.332000000    -0.100000000    -3.243000000
C     6.152000000    -0.345000000    -1.091000000
O     6.979000000    -1.391000000    -1.023000000
C     6.764000000    -2.461000000    -0.222000000
C     7.709000000    -2.772000000     0.798000000
H     8.546000000    -2.133000000     1.069000000
C     7.403000000    -3.822000000     1.652000000
H     7.954000000    -3.989000000     2.573000000
C     6.323000000    -4.683000000     1.443000000
H     6.033000000    -5.501000000     2.097000000
C     5.398000000    -4.376000000     0.407000000
C     5.583000000    -3.219000000    -0.283000000
H     4.803000000    -2.970000000    -0.998000000
C     1.148000000    -2.547000000    -1.279000000
H     1.452000000    -3.584000000    -1.164000000
C     0.324000000    -1.902000000    -0.331000000
H    -0.190000000    -2.598000000     0.327000000
C     0.052000000    -0.570000000    -0.431000000
H    -0.667000000    -0.081000000     0.156000000
C     0.628000000     0.050000000    -1.513000000
H     0.393000000     1.107000000    -1.603000000
C     1.601000000    -0.532000000    -2.324000000
H     2.097000000     0.096000000    -3.059000000
C     1.804000000    -1.883000000    -2.292000000
C     2.837000000    -2.590000000    -3.209000000
O     3.250000000    -1.955000000    -4.165000000
O     2.993000000    -3.806000000    -3.098000000
O    -0.179000000    -3.682000000    -5.826000000
H    -0.168000000    -4.065000000    -6.703000000
H     0.092000000    -4.396000000    -5.249000000
O    -2.127000000    -4.688000000    -3.868000000
H    -2.238000000    -3.868000000    -3.387000000
H    -1.192000000    -4.721000000    -4.072000000
O    -1.916000000    -1.771000000    -6.132000000
H    -1.687000000    -1.093000000    -5.496000000
H    -1.436000000    -2.546000000    -5.840000000
O     2.675000000    -0.384000000    -7.304000000
H     2.406000000     0.521000000    -7.147000000
H     2.115000000    -0.904000000    -6.728000000
O     2.615000000    -5.322000000    -7.807000000
H     2.428000000    -4.927000000    -8.659000000
H     2.946000000    -4.598000000    -7.275000000
O     7.782000000    -4.490000000    -2.575000000
H     6.873000000    -4.506000000    -2.874000000
H     7.999000000    -3.559000000    -2.518000000
O     0.855000000    -5.262000000    -3.842000000
H     1.577000000    -4.635000000    -3.811000000
H     1.268000000    -6.112000000    -3.688000000
O     8.637000000    -1.914000000    -3.647000000
H     8.403000000    -1.310000000    -4.351000000
H     8.572000000    -1.388000000    -2.849000000
O    -1.134000000     0.303000000    -4.168000000
H    -0.211000000     0.072000000    -4.272000000
H    -1.149000000     1.259000000    -4.226000000
O     0.749000000    -8.060000000    -3.627000000
H    -0.156000000    -8.126000000    -3.322000000
H     0.720000000    -8.371000000    -4.532000000
O     4.569000000    -7.964000000    -1.180000000
H     5.518000000    -7.852000000    -1.118000000
H     4.415000000    -8.203000000    -2.094000000
O     0.798000000    -1.143000000    -5.194000000
H     0.486000000    -1.951000000    -5.602000000
H     1.669000000    -1.362000000    -4.864000000
O     5.304000000    -0.993000000    -5.453000000
H     4.606000000    -1.340000000    -4.896000000
H     5.331000000    -0.059000000    -5.247000000
O     8.190000000    -0.625000000    -6.040000000
H     7.264000000    -0.467000000    -6.224000000
H     8.457000000    -1.271000000    -6.695000000
O     5.971000000    -5.433000000    -5.682000000
H     5.229000000    -4.899000000    -5.967000000
H     5.833000000    -5.552000000    -4.743000000
O     5.003000000    -5.466000000    -3.071000000
H     4.890000000    -6.052000000    -2.323000000
H     4.173000000    -4.995000000    -3.135000000
O    -1.563000000    -2.093000000    -2.933000000
H    -0.859000000    -2.156000000    -2.288000000
H    -1.504000000    -1.197000000    -3.266000000
O     3.568000000    -8.297000000    -3.810000000
H     4.013000000    -8.112000000    -4.637000000
H     2.805000000    -7.719000000    -3.814000000
O     3.968000000    -3.536000000    -6.258000000
H     3.363000000    -3.224000000    -5.585000000
H     4.598000000    -2.824000000    -6.363000000
