215
-1440.01620
C     2.726000000     2.949000000    -3.458000000
H     2.736000000     1.984000000    -3.958000000
C     3.372000000     2.904000000    -2.219000000
C     3.206000000     4.090000000    -1.433000000
H     3.674000000     4.057000000    -0.452000000
C     3.933000000     1.567000000    -1.695000000
O     4.526000000     0.672000000    -2.688000000
H     3.042000000     0.989000000    -1.410000000
O     4.718000000     1.846000000    -0.565000000
C     4.489000000     1.190000000     0.581000000
C     3.712000000     1.814000000     1.510000000
H     3.421000000     2.859000000     1.436000000
C     3.450000000     1.164000000     2.749000000
O     2.595000000     1.786000000     3.690000000
C     3.989000000    -0.169000000     2.918000000
C     3.507000000    -1.024000000     4.084000000
H     4.230000000    -1.841000000     4.126000000
C     2.108000000    -1.623000000     3.949000000
C     1.965000000    -2.884000000     3.374000000
H     2.900000000    -3.417000000     3.216000000
H     3.664000000    -0.435000000     4.990000000
C     4.756000000    -0.831000000     1.966000000
H     4.974000000    -1.892000000     2.063000000
C     4.942000000    -0.182000000     0.718000000
C     5.565000000    -0.887000000    -0.445000000
H     6.105000000    -1.733000000    -0.014000000
H     6.359000000    -0.264000000    -0.861000000
C     4.588000000    -1.412000000    -1.544000000
C     4.085000000    -2.692000000    -1.443000000
H     4.298000000    -3.330000000    -0.589000000
C     4.135000000    -0.606000000    -2.580000000
C     3.160000000    -1.040000000    -3.455000000
H     2.812000000    -0.515000000    -4.342000000
C     2.569000000    -2.254000000    -3.195000000
O     1.566000000    -2.694000000    -3.957000000
C     0.197000000    -2.672000000    -3.438000000
C    -0.807000000    -2.006000000    -4.446000000
C    -2.182000000    -2.004000000    -4.059000000
H    -2.461000000    -2.566000000    -3.172000000
C    -0.458000000    -1.150000000    -5.542000000
H     0.571000000    -1.118000000    -5.892000000
O    -0.314000000    -3.977000000    -2.994000000
H     0.227000000    -1.952000000    -2.606000000
C     3.044000000    -3.120000000    -2.304000000
C     2.505000000    -4.517000000    -2.002000000
H     3.221000000    -5.128000000    -1.448000000
H     2.310000000    -5.008000000    -2.957000000
C     1.248000000    -4.593000000    -1.211000000
C     1.442000000    -4.782000000     0.145000000
H     2.422000000    -4.923000000     0.595000000
C    -0.066000000    -4.409000000    -1.700000000
C    -1.147000000    -4.414000000    -0.817000000
H    -2.184000000    -4.398000000    -1.141000000
C    -0.889000000    -4.581000000     0.570000000
O    -1.943000000    -4.597000000     1.447000000
C    -2.184000000    -3.339000000     2.150000000
C    -3.667000000    -2.940000000     2.229000000
C    -4.401000000    -2.939000000     1.051000000
H    -4.049000000    -3.487000000     0.181000000
C    -4.269000000    -2.391000000     3.350000000
H    -3.762000000    -2.492000000     4.306000000
O    -1.592000000    -3.362000000     3.474000000
H    -1.756000000    -2.491000000     1.595000000
C     0.393000000    -4.832000000     1.030000000
C     0.601000000    -4.888000000     2.507000000
H     1.587000000    -5.329000000     2.665000000
H    -0.170000000    -5.527000000     2.942000000
C     0.707000000    -3.497000000     3.151000000
C    -0.384000000    -2.769000000     3.590000000
C    -0.268000000    -1.498000000     4.093000000
H    -1.192000000    -0.988000000     4.354000000
C     0.951000000    -0.913000000     4.285000000
O     0.982000000     0.323000000     4.731000000
C     1.210000000     1.386000000     3.767000000
H     0.925000000     0.852000000     2.848000000
C     0.244000000     2.508000000     3.873000000
C     0.508000000     3.830000000     3.502000000
H     1.530000000     4.152000000     3.324000000
C    -1.061000000     2.215000000     4.355000000
H    -1.304000000     1.246000000     4.784000000
C    -2.016000000     3.303000000     4.483000000
O    -3.353000000     3.064000000     4.771000000
C    -1.621000000     4.607000000     4.076000000
H    -2.359000000     5.400000000     3.989000000
C    -0.360000000     4.879000000     3.647000000
O     0.003000000     6.151000000     3.398000000
C     1.019000000     6.414000000     2.505000000
C     1.048000000     5.947000000     1.173000000
H     0.220000000     5.354000000     0.793000000
C     1.919000000     7.361000000     2.981000000
H     1.872000000     7.668000000     4.023000000
C     2.899000000     7.857000000     2.181000000
H     3.701000000     8.429000000     2.641000000
C     3.009000000     7.423000000     0.877000000
H     3.747000000     7.913000000     0.247000000
C     2.116000000     6.478000000     0.364000000
O     2.139000000     6.341000000    -1.026000000
C     2.404000000     5.157000000    -1.782000000
C     1.846000000     5.131000000    -3.047000000
H     1.276000000     6.021000000    -3.299000000
C     1.960000000     4.044000000    -3.869000000
O     1.309000000     4.122000000    -5.100000000
C     1.264000000     3.088000000    -6.054000000
C     0.152000000     2.225000000    -6.142000000
H    -0.605000000     2.300000000    -5.366000000
C     2.160000000     3.069000000    -7.104000000
H     2.915000000     3.849000000    -7.161000000
C     2.018000000     2.129000000    -8.119000000
H     2.706000000     2.248000000    -8.952000000
C     0.954000000     1.265000000    -8.121000000
H     0.724000000     0.629000000    -8.972000000
C     0.015000000     1.274000000    -7.120000000
O    -1.125000000     0.455000000    -7.208000000
C    -1.456000000    -0.459000000    -6.252000000
C    -2.791000000    -0.509000000    -5.797000000
H    -3.529000000     0.067000000    -6.350000000
C    -3.183000000    -1.300000000    -4.753000000
O    -4.470000000    -1.439000000    -4.413000000
C    -4.946000000    -2.337000000    -3.441000000
C    -5.647000000    -1.788000000    -2.371000000
H    -5.814000000    -0.717000000    -2.289000000
C    -4.874000000    -3.756000000    -3.687000000
H    -4.416000000    -4.036000000    -4.632000000
C    -5.342000000    -4.610000000    -2.719000000
H    -5.245000000    -5.666000000    -2.960000000
C    -5.897000000    -4.051000000    -1.556000000
H    -6.240000000    -4.787000000    -0.833000000
C    -6.021000000    -2.663000000    -1.351000000
O    -6.435000000    -2.183000000    -0.143000000
C    -5.667000000    -2.299000000     1.027000000
C    -6.109000000    -1.584000000     2.103000000
H    -7.049000000    -1.050000000     1.984000000
C    -5.430000000    -1.653000000     3.256000000
O    -5.869000000    -0.902000000     4.317000000
C    -5.066000000    -0.135000000     5.063000000
C    -4.932000000    -0.395000000     6.391000000
H    -5.237000000    -1.328000000     6.859000000
C    -4.342000000     0.545000000     7.202000000
H    -4.330000000     0.331000000     8.268000000
C    -3.777000000     1.687000000     6.635000000
H    -3.212000000     2.385000000     7.247000000
C    -3.820000000     1.884000000     5.264000000
C    -4.450000000     0.956000000     4.495000000
H    -4.534000000     1.170000000     3.433000000
C    -1.604000000    -0.653000000    -0.051000000
H    -2.373000000    -1.415000000    -0.151000000
C    -0.312000000    -1.060000000    -0.351000000
H    -0.113000000    -2.098000000    -0.604000000
C     0.698000000    -0.131000000    -0.172000000
H     1.723000000    -0.360000000    -0.381000000
C     0.451000000     1.191000000     0.282000000
H     1.281000000     1.889000000     0.353000000
C    -0.891000000     1.569000000     0.585000000
H    -1.274000000     2.563000000     0.802000000
C    -1.900000000     0.614000000     0.437000000
C    -3.307000000     1.094000000     0.474000000
O    -3.631000000     2.188000000     0.908000000
O    -4.189000000     0.369000000    -0.068000000
O    -3.286000000     5.532000000    -4.826000000
H    -2.638000000     6.159000000    -4.504000000
H    -3.558000000     5.047000000    -4.047000000
O    -8.138000000     2.145000000     2.121000000
H    -7.678000000     2.001000000     1.294000000
H    -8.612000000     1.328000000     2.277000000
O    -5.078000000     4.289000000     2.575000000
H    -4.573000000     3.511000000     2.338000000
H    -4.507000000     4.773000000     3.172000000
O    -7.824000000     3.595000000    -3.863000000
H    -6.946000000     3.215000000    -3.830000000
H    -8.014000000     3.838000000    -2.957000000
O    -2.335000000     5.040000000    -2.243000000
H    -3.041000000     4.730000000    -1.676000000
H    -1.778000000     4.272000000    -2.374000000
O    -5.161000000     4.773000000     6.399000000
H    -4.381000000     5.266000000     6.656000000
H    -4.818000000     3.978000000     5.990000000
O    -2.970000000     0.552000000    -2.355000000
H    -3.433000000     0.319000000    -1.550000000
H    -2.562000000    -0.265000000    -2.642000000
O    -6.737000000     0.801000000    -0.504000000
H    -6.684000000    -0.148000000    -0.396000000
H    -5.841000000     1.108000000    -0.364000000
O    -4.494000000     4.022000000    -0.913000000
H    -5.258000000     4.473000000    -0.554000000
H    -4.124000000     3.547000000    -0.168000000
O    -4.000000000     7.464000000     3.301000000
H    -4.910000000     7.673000000     3.089000000
H    -3.583000000     7.318000000     2.452000000
O    -0.784000000     7.246000000    -1.919000000
H    -0.776000000     7.513000000    -2.838000000
H    -1.325000000     6.457000000    -1.903000000
O    -7.451000000     6.396000000    -1.464000000
H    -7.695000000     6.921000000    -0.701000000
H    -7.137000000     5.570000000    -1.096000000
O    -5.799000000     1.388000000    -5.968000000
H    -5.525000000     1.597000000    -5.075000000
H    -5.402000000     2.073000000    -6.507000000
O    -2.306000000     7.549000000     1.053000000
H    -1.751000000     7.015000000     0.485000000
H    -1.690000000     8.076000000     1.562000000
O    -8.968000000     0.611000000    -2.602000000
H    -9.294000000    -0.098000000    -2.046000000
H    -8.482000000     1.179000000    -2.004000000
O    -5.313000000     2.509000000    -3.265000000
H    -4.774000000     3.107000000    -2.747000000
H    -5.538000000     1.803000000    -2.659000000
O    -7.121000000     4.354000000     0.579000000
H    -6.511000000     4.296000000     1.314000000
H    -7.966000000     4.551000000     0.984000000
O    -7.295000000     3.360000000     4.520000000
H    -7.544000000     2.678000000     3.896000000
H    -7.152000000     4.138000000     3.981000000
O    -0.916000000     2.865000000    -2.651000000
H    -0.231000000     2.608000000    -2.034000000
H    -1.627000000     2.245000000    -2.491000000
