215
-1470.19386
C    -5.143000000     0.005000000    -1.207000000
H    -5.122000000     1.084000000    -1.333000000
C    -4.705000000    -0.548000000    -0.030000000
C    -4.658000000    -1.950000000     0.132000000
H    -4.146000000    -2.296000000     1.026000000
C    -4.002000000     0.345000000     0.991000000
O    -4.549000000     1.711000000     0.947000000
H    -2.918000000     0.332000000     0.805000000
O    -4.314000000    -0.170000000     2.275000000
C    -3.243000000    -0.193000000     3.185000000
C    -2.582000000    -1.372000000     3.447000000
H    -2.954000000    -2.295000000     3.010000000
C    -1.462000000    -1.393000000     4.258000000
O    -0.721000000    -2.590000000     4.278000000
C    -0.974000000    -0.240000000     4.846000000
C     0.376000000    -0.160000000     5.647000000
H     0.328000000     0.699000000     6.319000000
C     1.587000000     0.063000000     4.703000000
C     2.091000000     1.376000000     4.473000000
H     1.704000000     2.313000000     4.863000000
H     0.545000000    -1.092000000     6.192000000
C    -1.537000000     0.983000000     4.476000000
H    -1.205000000     1.943000000     4.863000000
C    -2.722000000     1.012000000     3.707000000
C    -3.504000000     2.264000000     3.414000000
H    -3.294000000     2.969000000     4.221000000
H    -4.585000000     2.111000000     3.376000000
C    -2.995000000     2.977000000     2.150000000
C    -1.926000000     3.899000000     2.088000000
H    -1.542000000     4.247000000     3.044000000
C    -3.604000000     2.711000000     0.902000000
C    -3.141000000     3.272000000    -0.262000000
H    -3.680000000     3.209000000    -1.204000000
C    -1.987000000     4.087000000    -0.246000000
O    -1.580000000     4.480000000    -1.457000000
C    -0.357000000     3.893000000    -2.016000000
C    -0.474000000     3.577000000    -3.484000000
C     0.677000000     3.203000000    -4.110000000
H     1.587000000     3.241000000    -3.516000000
C    -1.692000000     3.369000000    -4.109000000
H    -2.576000000     3.587000000    -3.514000000
O     0.738000000     4.728000000    -1.665000000
H    -0.085000000     2.914000000    -1.596000000
C    -1.396000000     4.476000000     0.954000000
C    -0.257000000     5.572000000     0.930000000
H    -0.298000000     6.130000000     1.867000000
H    -0.339000000     6.347000000     0.165000000
C     1.056000000     4.845000000     0.773000000
C     1.698000000     4.376000000     1.937000000
H     1.365000000     4.724000000     2.911000000
C     1.434000000     4.451000000    -0.496000000
C     2.465000000     3.494000000    -0.569000000
H     2.780000000     3.170000000    -1.557000000
C     3.154000000     3.146000000     0.545000000
O     4.236000000     2.301000000     0.356000000
C     4.101000000     0.811000000     0.647000000
C     4.860000000     0.098000000    -0.455000000
C     5.053000000     0.684000000    -1.705000000
H     4.750000000     1.713000000    -1.880000000
C     5.205000000    -1.246000000    -0.205000000
H     5.048000000    -1.735000000     0.753000000
O     4.583000000     0.499000000     1.950000000
H     3.042000000     0.583000000     0.458000000
C     2.829000000     3.559000000     1.833000000
C     3.496000000     2.988000000     3.122000000
H     3.220000000     3.669000000     3.929000000
H     4.588000000     3.011000000     3.092000000
C     3.029000000     1.543000000     3.439000000
C     3.606000000     0.410000000     2.902000000
C     3.188000000    -0.876000000     3.227000000
H     3.588000000    -1.760000000     2.737000000
C     2.170000000    -1.038000000     4.073000000
O     1.562000000    -2.304000000     4.199000000
C     0.404000000    -2.611000000     3.350000000
H     0.254000000    -1.801000000     2.621000000
C     0.426000000    -3.962000000     2.622000000
C    -0.729000000    -4.776000000     2.573000000
H    -1.576000000    -4.383000000     3.129000000
C     1.612000000    -4.461000000     2.140000000
H     2.536000000    -3.905000000     2.282000000
C     1.619000000    -5.692000000     1.460000000
O     2.724000000    -6.186000000     0.838000000
C     0.396000000    -6.383000000     1.329000000
H     0.394000000    -7.324000000     0.783000000
C    -0.810000000    -5.908000000     1.814000000
O    -1.878000000    -6.730000000     1.770000000
C    -3.132000000    -6.254000000     1.608000000
C    -3.473000000    -5.524000000     0.491000000
H    -2.846000000    -5.410000000    -0.390000000
C    -4.057000000    -6.480000000     2.610000000
H    -3.817000000    -7.062000000     3.496000000
C    -5.351000000    -5.897000000     2.486000000
H    -6.125000000    -5.961000000     3.247000000
C    -5.695000000    -5.142000000     1.391000000
H    -6.661000000    -4.665000000     1.242000000
C    -4.727000000    -4.982000000     0.374000000
O    -4.991000000    -4.226000000    -0.743000000
C    -5.058000000    -2.818000000    -0.861000000
C    -5.537000000    -2.219000000    -2.018000000
H    -5.857000000    -2.883000000    -2.817000000
C    -5.675000000    -0.793000000    -2.193000000
O    -6.044000000    -0.250000000    -3.438000000
C    -5.698000000     0.959000000    -4.000000000
C    -4.473000000     1.150000000    -4.729000000
H    -3.855000000     0.285000000    -4.955000000
C    -6.530000000     2.073000000    -3.902000000
H    -7.413000000     1.939000000    -3.282000000
C    -6.196000000     3.308000000    -4.479000000
H    -6.886000000     4.148000000    -4.483000000
C    -4.989000000     3.441000000    -5.203000000
H    -4.678000000     4.362000000    -5.688000000
C    -4.117000000     2.331000000    -5.353000000
O    -2.910000000     2.446000000    -6.033000000
C    -1.755000000     2.746000000    -5.329000000
C    -0.571000000     2.442000000    -6.030000000
H    -0.546000000     1.889000000    -6.966000000
C     0.627000000     2.671000000    -5.425000000
O     1.803000000     2.251000000    -5.908000000
C     3.012000000     2.442000000    -5.368000000
C     3.746000000     1.367000000    -4.860000000
H     3.181000000     0.443000000    -4.769000000
C     3.657000000     3.668000000    -5.565000000
H     3.241000000     4.540000000    -6.062000000
C     4.981000000     3.880000000    -5.047000000
H     5.425000000     4.866000000    -5.158000000
C     5.608000000     2.790000000    -4.432000000
H     6.629000000     2.868000000    -4.068000000
C     5.021000000     1.539000000    -4.426000000
O     5.781000000     0.517000000    -3.874000000
C     5.497000000    -0.074000000    -2.746000000
C     5.820000000    -1.425000000    -2.583000000
H     6.053000000    -2.052000000    -3.439000000
C     5.813000000    -1.963000000    -1.276000000
O     6.057000000    -3.309000000    -1.130000000
C     5.561000000    -4.073000000    -0.054000000
C     6.373000000    -4.274000000     1.071000000
H     7.358000000    -3.818000000     1.128000000
C     5.955000000    -5.170000000     2.113000000
H     6.642000000    -5.321000000     2.942000000
C     4.673000000    -5.759000000     1.999000000
H     4.338000000    -6.448000000     2.771000000
C     3.882000000    -5.555000000     0.883000000
C     4.386000000    -4.757000000    -0.230000000
H     3.772000000    -4.643000000    -1.119000000
C     1.861000000    -1.738000000    -1.113000000
H     2.438000000    -2.488000000    -0.578000000
C     1.076000000    -0.768000000    -0.526000000
H     0.959000000    -0.803000000     0.554000000
C     0.326000000     0.139000000    -1.324000000
H    -0.331000000     0.897000000    -0.854000000
C     0.424000000    -0.036000000    -2.710000000
H    -0.217000000     0.575000000    -3.341000000
C     1.127000000    -1.054000000    -3.259000000
H     1.149000000    -1.189000000    -4.338000000
C     1.925000000    -1.852000000    -2.483000000
C     2.583000000    -3.056000000    -3.162000000
O     3.353000000    -2.967000000    -4.148000000
O     2.099000000    -4.137000000    -2.809000000
O     1.688000000    -0.499000000    -8.714000000
H     1.919000000    -1.037000000    -7.957000000
H     2.353000000     0.190000000    -8.730000000
O     0.439000000    -5.417000000    -4.413000000
H     0.984000000    -4.990000000    -3.752000000
H     1.064000000    -5.843000000    -5.000000000
O    -2.183000000    -5.155000000    -3.249000000
H    -2.361000000    -4.222000000    -3.133000000
H    -1.239000000    -5.237000000    -3.116000000
O     0.267000000    -4.446000000    -1.041000000
H     0.893000000    -4.175000000    -1.713000000
H     0.666000000    -5.217000000    -0.638000000
O     3.456000000    -6.160000000    -3.968000000
H     2.921000000    -6.009000000    -4.747000000
H     3.099000000    -5.560000000    -3.313000000
O     1.716000000    -7.310000000    -1.896000000
H     2.001000000    -6.921000000    -2.723000000
H     2.522000000    -7.631000000    -1.492000000
O     7.256000000    -0.849000000    -5.795000000
H     7.876000000    -1.451000000    -5.385000000
H     6.757000000    -0.484000000    -5.063000000
O    -0.341000000    -3.229000000    -6.259000000
H    -0.182000000    -3.952000000    -5.652000000
H     0.479000000    -3.141000000    -6.746000000
O    -0.971000000    -8.032000000    -1.728000000
H    -1.360000000    -7.632000000    -2.505000000
H    -0.075000000    -7.694000000    -1.706000000
O     2.385000000    -2.594000000    -6.805000000
H     3.154000000    -2.536000000    -7.373000000
H     2.745000000    -2.712000000    -5.926000000
O     8.177000000    -3.689000000    -4.844000000
H     7.222000000    -3.687000000    -4.900000000
H     8.459000000    -4.222000000    -5.588000000
O     4.438000000    -8.601000000    -3.481000000
H     4.118000000    -7.724000000    -3.692000000
H     5.354000000    -8.595000000    -3.759000000
O     1.951000000    -6.324000000    -6.555000000
H     1.463000000    -5.818000000    -7.206000000
H     1.817000000    -7.236000000    -6.812000000
O    -2.574000000    -2.225000000    -4.684000000
H    -2.090000000    -2.186000000    -3.859000000
H    -1.951000000    -2.594000000    -5.310000000
O     4.879000000    -5.291000000    -7.102000000
H     3.956000000    -5.454000000    -7.297000000
H     5.274000000    -5.100000000    -7.953000000
O    -1.220000000    -2.582000000    -2.454000000
H    -0.908000000    -3.261000000    -1.857000000
H    -0.918000000    -1.762000000    -2.063000000
O     7.010000000    -5.432000000    -2.613000000
H     6.819000000    -4.551000000    -2.289000000
H     6.573000000    -5.474000000    -3.464000000
O     5.527000000    -4.356000000    -4.707000000
H     5.291000000    -4.817000000    -5.512000000
H     4.730000000    -3.889000000    -4.457000000
O     5.718000000    -7.657000000    -0.467000000
H     6.412000000    -8.273000000    -0.236000000
H     6.155000000    -6.991000000    -0.999000000
