215
-1473.24657
C    -4.881000000    -0.676000000    -2.203000000
H    -5.183000000     0.368000000    -2.239000000
C    -4.436000000    -1.189000000    -0.943000000
C    -4.234000000    -2.578000000    -0.884000000
H    -3.830000000    -3.054000000     0.006000000
C    -4.226000000    -0.315000000     0.283000000
O    -5.117000000     0.803000000     0.317000000
H    -3.175000000    -0.008000000     0.180000000
O    -4.423000000    -0.924000000     1.587000000
C    -3.445000000    -0.714000000     2.607000000
C    -2.610000000    -1.721000000     2.762000000
H    -2.749000000    -2.667000000     2.244000000
C    -1.557000000    -1.563000000     3.712000000
O    -0.773000000    -2.638000000     4.041000000
C    -1.535000000    -0.473000000     4.544000000
C    -0.477000000    -0.380000000     5.664000000
H    -0.676000000     0.334000000     6.466000000
C     0.851000000    -0.008000000     5.096000000
C     1.125000000     1.349000000     4.910000000
H     0.449000000     2.085000000     5.337000000
H    -0.422000000    -1.387000000     6.083000000
C    -2.438000000     0.559000000     4.340000000
H    -2.329000000     1.532000000     4.810000000
C    -3.440000000     0.462000000     3.379000000
C    -4.458000000     1.526000000     3.078000000
H    -4.563000000     2.218000000     3.917000000
H    -5.449000000     1.068000000     3.042000000
C    -4.077000000     2.294000000     1.872000000
C    -3.118000000     3.306000000     2.062000000
H    -2.819000000     3.633000000     3.055000000
C    -4.454000000     1.996000000     0.529000000
C    -3.885000000     2.662000000    -0.573000000
H    -4.190000000     2.468000000    -1.598000000
C    -2.947000000     3.616000000    -0.335000000
O    -2.319000000     4.199000000    -1.431000000
C    -1.021000000     3.677000000    -1.709000000
C    -0.687000000     3.370000000    -3.175000000
C     0.591000000     3.622000000    -3.664000000
H     1.383000000     3.999000000    -3.022000000
C    -1.607000000     2.758000000    -3.993000000
H    -2.577000000     2.575000000    -3.539000000
O    -0.061000000     4.616000000    -1.134000000
H    -1.001000000     2.688000000    -1.229000000
C    -2.615000000     4.022000000     0.942000000
C    -1.603000000     5.081000000     1.229000000
H    -1.749000000     5.608000000     2.174000000
H    -1.723000000     5.859000000     0.472000000
C    -0.202000000     4.485000000     1.246000000
C     0.495000000     4.289000000     2.502000000
H    -0.049000000     4.407000000     3.436000000
C     0.498000000     4.320000000     0.081000000
C     1.844000000     3.900000000     0.122000000
H     2.455000000     3.801000000    -0.771000000
C     2.385000000     3.571000000     1.344000000
O     3.658000000     2.960000000     1.365000000
C     3.575000000     1.511000000     1.407000000
C     4.575000000     0.818000000     0.385000000
C     4.850000000     1.545000000    -0.835000000
H     4.447000000     2.535000000    -1.031000000
C     5.129000000    -0.389000000     0.540000000
H     4.873000000    -0.987000000     1.411000000
O     3.950000000     1.139000000     2.674000000
H     2.551000000     1.145000000     1.238000000
C     1.736000000     3.684000000     2.519000000
C     2.384000000     3.282000000     3.862000000
H     2.143000000     3.979000000     4.668000000
H     3.460000000     3.380000000     3.706000000
C     2.232000000     1.812000000     4.214000000
C     2.963000000     0.815000000     3.537000000
C     2.780000000    -0.534000000     3.765000000
H     3.425000000    -1.193000000     3.189000000
C     1.782000000    -0.964000000     4.566000000
O     1.516000000    -2.321000000     4.528000000
C     0.583000000    -2.715000000     3.509000000
H     0.636000000    -2.028000000     2.651000000
C     0.891000000    -4.104000000     2.893000000
C    -0.078000000    -4.897000000     2.253000000
H    -1.119000000    -4.680000000     2.478000000
C     2.244000000    -4.408000000     2.730000000
H     2.999000000    -3.828000000     3.253000000
C     2.643000000    -5.495000000     1.876000000
O     3.999000000    -5.772000000     1.663000000
C     1.629000000    -6.248000000     1.300000000
H     1.981000000    -7.102000000     0.727000000
C     0.357000000    -5.929000000     1.378000000
O    -0.570000000    -6.737000000     0.761000000
C    -1.921000000    -6.425000000     0.577000000
C    -2.398000000    -5.955000000    -0.672000000
H    -1.622000000    -5.736000000    -1.400000000
C    -2.881000000    -6.713000000     1.567000000
H    -2.551000000    -6.926000000     2.581000000
C    -4.207000000    -6.406000000     1.339000000
H    -4.982000000    -6.711000000     2.036000000
C    -4.648000000    -5.789000000     0.195000000
H    -5.728000000    -5.689000000     0.114000000
C    -3.705000000    -5.505000000    -0.816000000
O    -4.074000000    -4.747000000    -1.906000000
C    -4.297000000    -3.384000000    -1.978000000
C    -4.772000000    -2.820000000    -3.182000000
H    -4.829000000    -3.488000000    -4.038000000
C    -5.164000000    -1.536000000    -3.258000000
O    -5.596000000    -1.154000000    -4.482000000
C    -5.279000000     0.057000000    -5.070000000
C    -3.870000000     0.378000000    -5.290000000
H    -3.085000000    -0.331000000    -5.044000000
C    -6.290000000     0.899000000    -5.459000000
H    -7.308000000     0.579000000    -5.252000000
C    -5.935000000     2.101000000    -6.063000000
H    -6.782000000     2.733000000    -6.316000000
C    -4.604000000     2.386000000    -6.343000000
H    -4.413000000     3.305000000    -6.891000000
C    -3.565000000     1.564000000    -5.970000000
O    -2.278000000     1.929000000    -6.232000000
C    -1.379000000     2.505000000    -5.321000000
C    -0.128000000     2.813000000    -5.882000000
H     0.079000000     2.498000000    -6.902000000
C     0.842000000     3.344000000    -5.039000000
O     2.103000000     3.549000000    -5.521000000
C     3.227000000     3.587000000    -4.769000000
C     3.831000000     2.461000000    -4.256000000
H     3.277000000     1.526000000    -4.284000000
C     3.915000000     4.775000000    -4.841000000
H     3.417000000     5.580000000    -5.375000000
C     5.240000000     4.860000000    -4.319000000
H     5.773000000     5.804000000    -4.404000000
C     5.865000000     3.792000000    -3.675000000
H     6.852000000     3.827000000    -3.222000000
C     5.168000000     2.570000000    -3.669000000
O     5.789000000     1.529000000    -3.092000000
C     5.614000000     0.968000000    -1.831000000
C     6.022000000    -0.337000000    -1.751000000
H     6.676000000    -0.753000000    -2.512000000
C     5.866000000    -0.960000000    -0.540000000
O     6.414000000    -2.217000000    -0.426000000
C     6.124000000    -2.990000000     0.645000000
C     6.982000000    -3.089000000     1.710000000
H     7.878000000    -2.473000000     1.694000000
C     6.848000000    -3.969000000     2.756000000
H     7.532000000    -3.932000000     3.600000000
C     5.824000000    -4.875000000     2.735000000
H     5.510000000    -5.438000000     3.610000000
C     4.950000000    -4.775000000     1.655000000
C     5.112000000    -3.937000000     0.573000000
H     4.398000000    -4.000000000    -0.245000000
C     0.844000000    -2.279000000    -0.559000000
H     0.847000000    -3.366000000    -0.590000000
C    -0.094000000    -1.582000000     0.209000000
H    -0.758000000    -2.095000000     0.900000000
C     0.067000000    -0.179000000     0.260000000
H    -0.549000000     0.344000000     0.943000000
C     0.939000000     0.478000000    -0.568000000
H     0.828000000     1.559000000    -0.552000000
C     1.803000000    -0.207000000    -1.370000000
H     2.652000000     0.282000000    -1.840000000
C     1.760000000    -1.628000000    -1.327000000
C     2.737000000    -2.460000000    -2.144000000
O     3.320000000    -1.830000000    -3.010000000
O     2.683000000    -3.673000000    -2.145000000
O     6.722000000     0.174000000    -7.032000000
H     6.294000000    -0.394000000    -6.392000000
H     7.646000000     0.161000000    -6.784000000
O     0.371000000    -5.011000000    -3.222000000
H     1.076000000    -4.722000000    -2.643000000
H     0.372000000    -5.965000000    -3.144000000
O     4.242000000    -5.710000000    -1.802000000
H     5.024000000    -5.471000000    -2.299000000
H     3.693000000    -4.926000000    -1.827000000
O    -2.531000000    -3.739000000    -5.873000000
H    -2.971000000    -2.961000000    -6.216000000
H    -1.599000000    -3.561000000    -5.995000000
O     4.715000000    -8.371000000    -0.425000000
H     3.832000000    -8.739000000    -0.376000000
H     4.585000000    -7.484000000    -0.759000000
O     4.955000000    -2.312000000    -8.046000000
H     4.651000000    -2.477000000    -8.938000000
H     4.508000000    -1.506000000    -7.786000000
O     4.010000000    -4.080000000    -4.785000000
H     3.515000000    -4.115000000    -5.603000000
H     3.452000000    -3.580000000    -4.189000000
O     1.820000000    -4.836000000    -6.914000000
H     1.114000000    -5.481000000    -6.862000000
H     2.136000000    -4.899000000    -7.815000000
O     0.367000000    -2.722000000    -6.398000000
H     0.750000000    -2.155000000    -5.729000000
H     0.931000000    -3.494000000    -6.410000000
O     1.263000000    -7.935000000    -2.483000000
H     1.476000000    -8.532000000    -1.767000000
H     2.112000000    -7.684000000    -2.847000000
O     4.943000000    -0.606000000    -4.985000000
H     5.026000000     0.240000000    -4.546000000
H     4.596000000    -1.192000000    -4.313000000
O     3.605000000    -7.568000000    -3.957000000
H     4.458000000    -7.974000000    -4.111000000
H     3.808000000    -6.658000000    -3.741000000
O     1.783000000    -0.854000000    -4.815000000
H     1.157000000    -0.385000000    -4.264000000
H     2.367000000    -1.291000000    -4.196000000
O    -0.826000000    -0.375000000    -3.115000000
H    -1.073000000    -1.284000000    -3.289000000
H    -0.482000000    -0.388000000    -2.222000000
O     6.463000000    -3.529000000    -6.079000000
H     5.917000000    -3.038000000    -6.692000000
H     5.919000000    -3.624000000    -5.297000000
O    -1.325000000    -2.902000000    -3.616000000
H    -0.817000000    -3.710000000    -3.541000000
H    -2.049000000    -3.128000000    -4.199000000
O     3.062000000    -0.471000000    -7.303000000
H     2.390000000    -0.495000000    -7.984000000
H     2.576000000    -0.561000000    -6.483000000
O     8.199000000    -5.452000000    -1.675000000
H     7.543000000    -5.037000000    -2.237000000
H     8.419000000    -6.267000000    -2.127000000
O     6.372000000    -3.906000000    -2.925000000
H     6.355000000    -3.215000000    -2.264000000
H     5.514000000    -3.858000000    -3.345000000
