215
-1461.25315
C    -4.819000000    -0.993000000    -2.139000000
H    -5.081000000     0.038000000    -2.362000000
C    -4.418000000    -1.557000000    -0.919000000
C    -4.174000000    -2.934000000    -0.767000000
H    -3.777000000    -3.361000000     0.150000000
C    -4.184000000    -0.679000000     0.309000000
O    -4.945000000     0.524000000     0.076000000
H    -3.124000000    -0.393000000     0.377000000
O    -4.582000000    -1.397000000     1.530000000
C    -3.778000000    -1.219000000     2.650000000
C    -2.734000000    -2.170000000     2.814000000
H    -2.793000000    -3.100000000     2.256000000
C    -1.691000000    -1.947000000     3.659000000
O    -0.783000000    -2.895000000     3.854000000
C    -1.633000000    -0.743000000     4.407000000
C    -0.604000000    -0.482000000     5.492000000
H    -1.059000000     0.214000000     6.200000000
C     0.694000000    -0.041000000     4.884000000
C     0.885000000     1.369000000     4.827000000
H     0.141000000     2.066000000     5.204000000
H    -0.357000000    -1.390000000     6.047000000
C    -2.562000000     0.247000000     4.172000000
H    -2.523000000     1.135000000     4.798000000
C    -3.641000000     0.043000000     3.280000000
C    -4.734000000     1.084000000     2.939000000
H    -5.008000000     1.609000000     3.856000000
H    -5.633000000     0.556000000     2.616000000
C    -4.160000000     1.990000000     1.822000000
C    -3.359000000     3.110000000     2.184000000
H    -3.227000000     3.364000000     3.233000000
C    -4.301000000     1.651000000     0.467000000
C    -3.594000000     2.340000000    -0.517000000
H    -3.770000000     2.024000000    -1.542000000
C    -2.817000000     3.467000000    -0.111000000
O    -2.311000000     4.166000000    -1.160000000
C    -0.935000000     3.971000000    -1.472000000
C    -0.617000000     3.713000000    -2.940000000
C     0.586000000     4.263000000    -3.537000000
H     1.207000000     4.945000000    -2.961000000
C    -1.499000000     2.929000000    -3.702000000
H    -2.440000000     2.503000000    -3.363000000
O    -0.209000000     5.043000000    -0.928000000
H    -0.708000000     3.050000000    -0.914000000
C    -2.753000000     3.944000000     1.214000000
C    -1.873000000     5.080000000     1.575000000
H    -1.999000000     5.393000000     2.613000000
H    -2.120000000     6.047000000     1.132000000
C    -0.380000000     4.770000000     1.479000000
C     0.207000000     4.246000000     2.574000000
H    -0.382000000     4.134000000     3.481000000
C     0.368000000     4.849000000     0.336000000
C     1.634000000     4.271000000     0.301000000
H     2.164000000     4.262000000    -0.648000000
C     2.145000000     3.644000000     1.418000000
O     3.383000000     3.084000000     1.231000000
C     3.465000000     1.661000000     1.347000000
C     4.392000000     1.062000000     0.201000000
C     4.426000000     1.648000000    -1.087000000
H     3.825000000     2.526000000    -1.307000000
C     5.174000000    -0.173000000     0.431000000
H     5.287000000    -0.682000000     1.385000000
O     3.906000000     1.470000000     2.727000000
H     2.453000000     1.280000000     1.150000000
C     1.515000000     3.862000000     2.607000000
C     2.105000000     3.381000000     3.884000000
H     1.591000000     3.807000000     4.748000000
H     3.164000000     3.646000000     3.915000000
C     2.042000000     1.852000000     4.168000000
C     2.985000000     0.957000000     3.612000000
C     2.737000000    -0.420000000     3.620000000
H     3.555000000    -0.913000000     3.101000000
C     1.652000000    -0.919000000     4.281000000
O     1.544000000    -2.290000000     4.259000000
C     0.517000000    -2.728000000     3.286000000
H     0.370000000    -1.894000000     2.583000000
C     0.951000000    -3.983000000     2.507000000
C    -0.025000000    -4.961000000     2.058000000
H    -1.026000000    -5.044000000     2.472000000
C     2.247000000    -4.082000000     2.063000000
H     2.978000000    -3.324000000     2.333000000
C     2.658000000    -5.141000000     1.251000000
O     3.931000000    -5.195000000     0.737000000
C     1.702000000    -6.054000000     0.885000000
H     2.055000000    -6.855000000     0.241000000
C     0.366000000    -6.024000000     1.244000000
O    -0.536000000    -6.991000000     0.810000000
C    -1.858000000    -6.745000000     0.713000000
C    -2.291000000    -5.908000000    -0.366000000
H    -1.595000000    -5.461000000    -1.071000000
C    -2.813000000    -7.317000000     1.497000000
H    -2.422000000    -7.996000000     2.251000000
C    -4.175000000    -7.145000000     1.268000000
H    -4.863000000    -7.674000000     1.922000000
C    -4.598000000    -6.444000000     0.143000000
H    -5.642000000    -6.280000000    -0.110000000
C    -3.642000000    -5.781000000    -0.645000000
O    -4.075000000    -5.165000000    -1.773000000
C    -4.265000000    -3.786000000    -1.896000000
C    -4.609000000    -3.234000000    -3.140000000
H    -4.645000000    -3.866000000    -4.023000000
C    -4.972000000    -1.867000000    -3.256000000
O    -5.299000000    -1.300000000    -4.469000000
C    -4.998000000     0.015000000    -4.860000000
C    -3.657000000     0.315000000    -5.139000000
H    -2.939000000    -0.448000000    -4.850000000
C    -5.996000000     0.949000000    -5.090000000
H    -7.034000000     0.737000000    -4.847000000
C    -5.713000000     2.202000000    -5.516000000
H    -6.504000000     2.943000000    -5.589000000
C    -4.381000000     2.554000000    -5.903000000
H    -4.049000000     3.535000000    -6.234000000
C    -3.368000000     1.612000000    -5.627000000
O    -2.060000000     1.991000000    -5.976000000
C    -1.163000000     2.645000000    -5.054000000
C     0.008000000     3.137000000    -5.591000000
H     0.302000000     2.833000000    -6.592000000
C     0.857000000     3.936000000    -4.846000000
O     2.049000000     4.307000000    -5.404000000
C     3.262000000     4.219000000    -4.758000000
C     3.804000000     2.955000000    -4.540000000
H     3.374000000     2.007000000    -4.854000000
C     4.004000000     5.334000000    -4.329000000
H     3.538000000     6.311000000    -4.434000000
C     5.200000000     5.203000000    -3.597000000
H     5.647000000     6.142000000    -3.279000000
C     5.662000000     3.937000000    -3.255000000
H     6.596000000     3.908000000    -2.701000000
C     4.927000000     2.800000000    -3.709000000
O     5.317000000     1.559000000    -3.392000000
C     5.264000000     1.044000000    -2.124000000
C     6.070000000    -0.057000000    -1.830000000
H     6.721000000    -0.361000000    -2.646000000
C     6.041000000    -0.638000000    -0.565000000
O     6.950000000    -1.669000000    -0.450000000
C     6.619000000    -2.756000000     0.372000000
C     7.561000000    -3.220000000     1.280000000
H     8.576000000    -2.830000000     1.300000000
C     7.210000000    -4.262000000     2.137000000
H     7.907000000    -4.648000000     2.876000000
C     5.939000000    -4.889000000     2.011000000
H     5.826000000    -5.790000000     2.610000000
C     5.029000000    -4.483000000     1.043000000
C     5.419000000    -3.437000000     0.244000000
H     4.607000000    -3.006000000    -0.336000000
C     0.197000000    -1.578000000    -0.661000000
H    -0.053000000    -2.616000000    -0.458000000
C    -0.290000000    -0.547000000     0.169000000
H    -0.974000000    -0.806000000     0.973000000
C    -0.024000000     0.798000000    -0.073000000
H    -0.524000000     1.603000000     0.548000000
C     0.949000000     1.110000000    -1.051000000
H     1.157000000     2.172000000    -1.159000000
C     1.483000000     0.050000000    -1.844000000
H     2.311000000     0.269000000    -2.513000000
C     1.115000000    -1.264000000    -1.633000000
C     1.654000000    -2.462000000    -2.464000000
O     2.763000000    -2.373000000    -3.049000000
O     0.948000000    -3.412000000    -2.710000000
O    -0.279000000    -7.505000000    -2.965000000
H    -0.679000000    -8.162000000    -2.397000000
H    -1.011000000    -6.961000000    -3.256000000
O     2.090000000    -5.913000000    -2.973000000
H     1.642000000    -5.071000000    -2.889000000
H     1.402000000    -6.564000000    -2.837000000
O     4.733000000    -6.224000000    -2.369000000
H     3.810000000    -5.989000000    -2.463000000
H     4.840000000    -6.409000000    -1.436000000
O    -1.277000000    -4.198000000    -7.046000000
H    -0.963000000    -4.918000000    -7.593000000
H    -1.163000000    -4.510000000    -6.149000000
O     4.545000000    -3.047000000    -7.223000000
H     4.231000000    -2.505000000    -6.499000000
H     3.774000000    -3.182000000    -7.774000000
O    -1.746000000    -0.678000000    -8.599000000
H    -1.133000000    -0.299000000    -9.227000000
H    -1.190000000    -1.042000000    -7.910000000
O     6.059000000    -3.686000000    -3.625000000
H     5.200000000    -3.478000000    -3.257000000
H     5.982000000    -4.596000000    -3.913000000
O     3.493000000    -5.903000000    -5.676000000
H     3.407000000    -6.117000000    -4.747000000
H     3.326000000    -4.962000000    -5.721000000
O     2.032000000    -3.302000000    -5.620000000
H     1.136000000    -3.623000000    -5.528000000
H     2.293000000    -3.061000000    -4.731000000
O     4.174000000    -0.935000000    -4.759000000
H     3.727000000    -1.376000000    -4.037000000
H     4.436000000    -0.088000000    -4.398000000
O     7.183000000    -1.685000000    -4.986000000
H     6.258000000    -1.484000000    -5.125000000
H     7.179000000    -2.483000000    -4.457000000
O     1.610000000    -9.695000000    -4.050000000
H     1.012000000    -9.065000000    -3.647000000
H     1.309000000    -9.765000000    -4.956000000
O     2.827000000    -0.318000000    -7.422000000
H     1.974000000    -0.745000000    -7.502000000
H     3.094000000    -0.482000000    -6.517000000
O     0.598000000    -2.227000000    -7.822000000
H     1.270000000    -2.616000000    -7.263000000
H    -0.024000000    -2.938000000    -7.978000000
O    -2.667000000    -6.616000000    -3.730000000
H    -3.126000000    -6.170000000    -3.018000000
H    -3.364000000    -6.921000000    -4.311000000
O    -0.336000000    -4.571000000    -4.567000000
H    -0.048000000    -4.177000000    -3.744000000
H    -0.337000000    -5.513000000    -4.394000000
O    -3.836000000    -2.866000000    -7.025000000
H    -3.783000000    -1.946000000    -7.283000000
H    -2.927000000    -3.124000000    -6.869000000
O     2.735000000    -6.860000000    -8.139000000
H     3.084000000    -6.501000000    -7.323000000
H     3.416000000    -7.457000000    -8.449000000
O     8.777000000    -3.087000000    -2.495000000
H     9.001000000    -2.157000000    -2.501000000
H     7.824000000    -3.103000000    -2.401000000
