215
-1462.28144
C    -5.197000000    -0.673000000    -1.853000000
H    -5.606000000     0.317000000    -2.037000000
C    -4.555000000    -1.057000000    -0.634000000
C    -4.131000000    -2.400000000    -0.610000000
H    -3.541000000    -2.776000000     0.222000000
C    -4.208000000    -0.012000000     0.444000000
O    -4.724000000     1.278000000     0.198000000
H    -3.124000000     0.102000000     0.297000000
O    -4.585000000    -0.548000000     1.713000000
C    -3.651000000    -0.551000000     2.744000000
C    -2.918000000    -1.712000000     2.974000000
H    -3.192000000    -2.588000000     2.391000000
C    -1.875000000    -1.652000000     3.945000000
O    -1.073000000    -2.753000000     4.100000000
C    -1.623000000    -0.486000000     4.602000000
C    -0.466000000    -0.310000000     5.587000000
H    -0.780000000     0.462000000     6.293000000
C     0.908000000    -0.065000000     4.841000000
C     1.427000000     1.220000000     4.778000000
H     1.046000000     2.024000000     5.402000000
H    -0.413000000    -1.199000000     6.219000000
C    -2.411000000     0.647000000     4.423000000
H    -2.173000000     1.558000000     4.966000000
C    -3.459000000     0.616000000     3.442000000
C    -4.237000000     1.850000000     3.152000000
H    -4.245000000     2.452000000     4.063000000
H    -5.300000000     1.632000000     3.033000000
C    -3.637000000     2.608000000     1.964000000
C    -2.678000000     3.608000000     2.274000000
H    -2.312000000     3.763000000     3.285000000
C    -3.997000000     2.370000000     0.632000000
C    -3.438000000     3.141000000    -0.314000000
H    -3.756000000     3.050000000    -1.350000000
C    -2.471000000     4.107000000    -0.049000000
O    -1.835000000     4.593000000    -1.195000000
C    -0.597000000     3.880000000    -1.431000000
C    -0.450000000     3.684000000    -2.869000000
C     0.695000000     4.071000000    -3.570000000
H     1.383000000     4.736000000    -3.056000000
C    -1.366000000     2.896000000    -3.494000000
H    -2.289000000     2.546000000    -3.039000000
O     0.420000000     4.725000000    -0.858000000
H    -0.570000000     2.942000000    -0.857000000
C    -2.036000000     4.265000000     1.271000000
C    -0.954000000     5.203000000     1.661000000
H    -1.039000000     5.587000000     2.679000000
H    -1.132000000     6.070000000     1.022000000
C     0.431000000     4.591000000     1.507000000
C     1.221000000     4.196000000     2.621000000
H     0.755000000     4.425000000     3.577000000
C     0.986000000     4.263000000     0.253000000
C     2.270000000     3.681000000     0.115000000
H     2.822000000     3.429000000    -0.788000000
C     2.971000000     3.335000000     1.296000000
O     4.161000000     2.661000000     1.114000000
C     4.023000000     1.220000000     0.997000000
C     4.752000000     0.578000000    -0.170000000
C     5.043000000     1.293000000    -1.385000000
H     5.013000000     2.378000000    -1.431000000
C     4.851000000    -0.830000000    -0.111000000
H     4.461000000    -1.373000000     0.746000000
O     4.309000000     0.757000000     2.393000000
H     2.957000000     1.065000000     0.774000000
C     2.388000000     3.552000000     2.551000000
C     2.931000000     2.998000000     3.834000000
H     2.759000000     3.530000000     4.772000000
H     4.017000000     3.091000000     3.767000000
C     2.559000000     1.517000000     3.981000000
C     3.204000000     0.519000000     3.264000000
C     2.755000000    -0.801000000     3.446000000
H     3.194000000    -1.652000000     2.931000000
C     1.694000000    -1.061000000     4.248000000
O     1.289000000    -2.391000000     4.318000000
C     0.208000000    -2.708000000     3.405000000
H     0.228000000    -1.907000000     2.652000000
C     0.604000000    -4.029000000     2.646000000
C    -0.460000000    -4.839000000     2.229000000
H    -1.486000000    -4.549000000     2.438000000
C     1.886000000    -4.430000000     2.342000000
H     2.695000000    -3.823000000     2.740000000
C     2.141000000    -5.627000000     1.785000000
O     3.503000000    -6.028000000     1.601000000
C     1.072000000    -6.473000000     1.429000000
H     1.272000000    -7.420000000     0.934000000
C    -0.239000000    -6.061000000     1.588000000
O    -1.220000000    -6.941000000     1.160000000
C    -2.411000000    -6.451000000     0.872000000
C    -2.668000000    -5.845000000    -0.329000000
H    -1.851000000    -5.708000000    -1.033000000
C    -3.491000000    -6.621000000     1.766000000
H    -3.248000000    -7.080000000     2.721000000
C    -4.793000000    -6.282000000     1.451000000
H    -5.610000000    -6.492000000     2.136000000
C    -5.084000000    -5.678000000     0.218000000
H    -6.069000000    -5.264000000     0.020000000
C    -3.955000000    -5.375000000    -0.621000000
O    -3.968000000    -4.545000000    -1.750000000
C    -4.349000000    -3.217000000    -1.716000000
C    -4.877000000    -2.805000000    -2.901000000
H    -4.914000000    -3.485000000    -3.748000000
C    -5.199000000    -1.461000000    -2.965000000
O    -5.788000000    -0.957000000    -4.114000000
C    -5.323000000     0.179000000    -4.705000000
C    -3.978000000     0.464000000    -4.706000000
H    -3.238000000    -0.249000000    -4.352000000
C    -6.254000000     1.154000000    -5.155000000
H    -7.300000000     0.859000000    -5.119000000
C    -5.792000000     2.364000000    -5.639000000
H    -6.434000000     3.152000000    -6.022000000
C    -4.412000000     2.624000000    -5.699000000
H    -3.966000000     3.460000000    -6.232000000
C    -3.476000000     1.662000000    -5.265000000
O    -2.200000000     1.812000000    -5.578000000
C    -1.235000000     2.582000000    -4.867000000
C    -0.048000000     2.883000000    -5.506000000
H     0.080000000     2.497000000    -6.514000000
C     0.897000000     3.643000000    -4.870000000
O     2.125000000     3.917000000    -5.549000000
C     3.254000000     3.806000000    -4.829000000
C     3.793000000     2.581000000    -4.600000000
H     3.113000000     1.734000000    -4.635000000
C     4.069000000     4.935000000    -4.641000000
H     3.659000000     5.920000000    -4.854000000
C     5.305000000     4.850000000    -4.101000000
H     5.820000000     5.742000000    -3.754000000
C     5.871000000     3.550000000    -3.922000000
H     6.915000000     3.443000000    -3.640000000
C     5.083000000     2.443000000    -4.096000000
O     5.573000000     1.174000000    -3.809000000
C     5.397000000     0.581000000    -2.567000000
C     5.448000000    -0.787000000    -2.477000000
H     5.689000000    -1.400000000    -3.341000000
C     5.263000000    -1.505000000    -1.271000000
O     5.222000000    -2.867000000    -1.372000000
C     5.436000000    -3.665000000    -0.324000000
C     6.587000000    -3.549000000     0.478000000
H     7.343000000    -2.819000000     0.200000000
C     6.688000000    -4.214000000     1.717000000
H     7.605000000    -4.085000000     2.287000000
C     5.651000000    -5.100000000     2.142000000
H     5.788000000    -5.718000000     3.026000000
C     4.519000000    -5.162000000     1.339000000
C     4.428000000    -4.520000000     0.126000000
H     3.446000000    -4.516000000    -0.340000000
C     0.394000000    -2.735000000    -0.927000000
H     0.132000000    -3.784000000    -0.815000000
C    -0.300000000    -1.936000000    -0.019000000
H    -1.061000000    -2.355000000     0.634000000
C    -0.013000000    -0.628000000     0.049000000
H    -0.667000000    -0.017000000     0.701000000
C     0.956000000    -0.082000000    -0.766000000
H     1.245000000     0.960000000    -0.657000000
C     1.645000000    -0.953000000    -1.669000000
H     2.430000000    -0.556000000    -2.308000000
C     1.381000000    -2.256000000    -1.780000000
C     2.044000000    -3.244000000    -2.791000000
O     2.745000000    -2.734000000    -3.670000000
O     1.922000000    -4.455000000    -2.756000000
O    -0.346000000    -6.218000000    -6.090000000
H    -0.179000000    -6.296000000    -5.150000000
H    -0.911000000    -6.963000000    -6.295000000
O     5.840000000    -1.112000000    -7.735000000
H     6.616000000    -1.653000000    -7.884000000
H     5.282000000    -1.644000000    -7.169000000
O    -0.197000000    -5.953000000    -2.857000000
H     0.603000000    -5.435000000    -2.766000000
H     0.109000000    -6.823000000    -3.115000000
O     2.999000000    -6.953000000    -2.539000000
H     3.763000000    -6.987000000    -3.114000000
H     2.650000000    -6.069000000    -2.656000000
O    -2.765000000    -2.929000000    -6.087000000
H    -2.530000000    -3.083000000    -5.172000000
H    -1.927000000    -2.807000000    -6.533000000
O     4.073000000    -8.293000000    -0.358000000
H     3.425000000    -8.508000000     0.313000000
H     3.605000000    -7.727000000    -0.970000000
O     3.826000000    -3.215000000    -8.254000000
H     4.168000000    -2.443000000    -8.705000000
H     3.002000000    -3.409000000    -8.702000000
O     2.212000000    -5.175000000    -5.396000000
H     1.489000000    -5.760000000    -5.622000000
H     2.021000000    -4.892000000    -4.501000000
O    -0.332000000    -3.499000000    -6.951000000
H     0.426000000    -3.018000000    -6.617000000
H    -0.216000000    -4.388000000    -6.618000000
O     0.466000000    -8.362000000    -3.668000000
H     0.417000000    -8.955000000    -4.418000000
H     1.370000000    -8.437000000    -3.363000000
O     4.430000000    -2.246000000    -5.746000000
H     3.836000000    -2.771000000    -6.282000000
H     4.008000000    -2.207000000    -4.888000000
O     6.602000000    -3.712000000    -5.055000000
H     6.088000000    -4.197000000    -4.409000000
H     5.980000000    -3.097000000    -5.444000000
O     1.026000000    -1.158000000    -5.923000000
H     0.311000000    -0.742000000    -5.441000000
H     1.649000000    -1.423000000    -5.246000000
O    -0.623000000    -0.874000000    -3.472000000
H    -1.007000000    -1.748000000    -3.412000000
H    -0.083000000    -0.795000000    -2.685000000
O     4.147000000    -5.558000000    -6.970000000
H     3.987000000    -4.829000000    -7.569000000
H     3.395000000    -5.550000000    -6.377000000
O    -1.780000000    -3.438000000    -3.499000000
H    -1.261000000    -4.227000000    -3.347000000
H    -2.498000000    -3.498000000    -2.869000000
O     1.650000000    -0.821000000    -8.754000000
H     1.554000000    -1.723000000    -9.061000000
H     1.478000000    -0.869000000    -7.813000000
O     7.251000000    -6.212000000    -2.971000000
H     6.409000000    -5.859000000    -3.257000000
H     7.546000000    -6.751000000    -3.706000000
O     4.679000000    -5.220000000    -3.785000000
H     4.174000000    -4.789000000    -3.096000000
H     4.285000000    -4.912000000    -4.601000000
