215
-1457.01396
C    -4.544000000    -0.739000000    -2.303000000
H    -4.342000000     0.314000000    -2.483000000
C    -4.391000000    -1.224000000    -0.976000000
C    -4.623000000    -2.600000000    -0.741000000
H    -4.618000000    -3.039000000     0.253000000
C    -4.120000000    -0.257000000     0.197000000
O    -4.803000000     0.922000000     0.072000000
H    -3.036000000    -0.071000000     0.193000000
O    -4.552000000    -0.889000000     1.383000000
C    -3.726000000    -0.805000000     2.516000000
C    -3.011000000    -1.866000000     2.884000000
H    -3.164000000    -2.805000000     2.358000000
C    -2.055000000    -1.815000000     3.918000000
O    -1.111000000    -2.868000000     3.984000000
C    -1.825000000    -0.593000000     4.552000000
C    -0.649000000    -0.340000000     5.593000000
H    -0.890000000     0.415000000     6.344000000
C     0.633000000     0.030000000     4.856000000
C     0.887000000     1.323000000     4.574000000
H     0.234000000     2.114000000     4.934000000
H    -0.408000000    -1.192000000     6.231000000
C    -2.638000000     0.496000000     4.246000000
H    -2.509000000     1.415000000     4.813000000
C    -3.599000000     0.420000000     3.188000000
C    -4.534000000     1.615000000     2.887000000
H    -4.740000000     2.176000000     3.801000000
H    -5.516000000     1.298000000     2.529000000
C    -3.891000000     2.426000000     1.786000000
C    -2.977000000     3.445000000     2.043000000
H    -2.872000000     3.719000000     3.090000000
C    -4.253000000     2.141000000     0.450000000
C    -3.619000000     2.740000000    -0.626000000
H    -3.811000000     2.333000000    -1.615000000
C    -2.689000000     3.722000000    -0.338000000
O    -2.118000000     4.272000000    -1.404000000
C    -0.741000000     3.894000000    -1.687000000
C    -0.582000000     3.562000000    -3.184000000
C     0.720000000     3.652000000    -3.771000000
H     1.473000000     4.095000000    -3.124000000
C    -1.680000000     3.012000000    -3.926000000
H    -2.652000000     2.943000000    -3.446000000
O     0.182000000     4.873000000    -1.228000000
H    -0.430000000     2.959000000    -1.199000000
C    -2.351000000     4.111000000     0.970000000
C    -1.373000000     5.276000000     1.147000000
H    -1.665000000     5.807000000     2.055000000
H    -1.477000000     5.940000000     0.286000000
C     0.014000000     4.824000000     1.182000000
C     0.595000000     4.456000000     2.417000000
H     0.002000000     4.648000000     3.307000000
C     0.742000000     4.642000000    -0.011000000
C     1.977000000     4.054000000     0.019000000
H     2.477000000     3.870000000    -0.928000000
C     2.525000000     3.594000000     1.202000000
O     3.743000000     2.984000000     1.174000000
C     3.706000000     1.499000000     1.300000000
C     4.610000000     0.786000000     0.258000000
C     4.656000000     1.199000000    -1.061000000
H     4.105000000     2.076000000    -1.393000000
C     5.371000000    -0.320000000     0.653000000
H     5.322000000    -0.561000000     1.711000000
O     4.020000000     1.107000000     2.699000000
H     2.667000000     1.232000000     1.057000000
C     1.839000000     3.840000000     2.456000000
C     2.352000000     3.243000000     3.723000000
H     1.977000000     3.837000000     4.558000000
H     3.436000000     3.376000000     3.710000000
C     2.082000000     1.751000000     3.941000000
C     2.976000000     0.750000000     3.487000000
C     2.691000000    -0.584000000     3.696000000
H     3.419000000    -1.308000000     3.340000000
C     1.480000000    -0.931000000     4.244000000
O     1.164000000    -2.280000000     4.227000000
C     0.174000000    -2.748000000     3.273000000
H     0.009000000    -1.885000000     2.611000000
C     0.671000000    -3.914000000     2.345000000
C    -0.224000000    -4.662000000     1.561000000
H    -1.285000000    -4.426000000     1.574000000
C     2.015000000    -4.164000000     2.340000000
H     2.710000000    -3.635000000     2.987000000
C     2.451000000    -5.249000000     1.553000000
O     3.791000000    -5.605000000     1.758000000
C     1.659000000    -6.032000000     0.820000000
H     2.085000000    -6.839000000     0.231000000
C     0.295000000    -5.692000000     0.782000000
O    -0.514000000    -6.553000000     0.028000000
C    -1.878000000    -6.474000000     0.259000000
C    -2.578000000    -5.738000000    -0.672000000
H    -2.124000000    -5.391000000    -1.597000000
C    -2.536000000    -7.051000000     1.340000000
H    -2.003000000    -7.689000000     2.040000000
C    -3.892000000    -6.811000000     1.496000000
H    -4.337000000    -7.261000000     2.379000000
C    -4.655000000    -6.071000000     0.600000000
H    -5.729000000    -5.907000000     0.623000000
C    -3.978000000    -5.551000000    -0.534000000
O    -4.731000000    -4.905000000    -1.563000000
C    -4.738000000    -3.531000000    -1.781000000
C    -4.755000000    -3.066000000    -3.083000000
H    -4.947000000    -3.772000000    -3.887000000
C    -4.728000000    -1.667000000    -3.364000000
O    -4.808000000    -1.264000000    -4.681000000
C    -4.802000000     0.092000000    -5.034000000
C    -3.593000000     0.670000000    -5.353000000
H    -2.681000000     0.092000000    -5.225000000
C    -6.014000000     0.712000000    -5.131000000
H    -6.840000000     0.126000000    -4.738000000
C    -6.086000000     2.059000000    -5.480000000
H    -6.928000000     2.743000000    -5.405000000
C    -4.882000000     2.654000000    -5.757000000
H    -4.810000000     3.700000000    -6.044000000
C    -3.678000000     1.985000000    -5.730000000
O    -2.506000000     2.680000000    -6.164000000
C    -1.460000000     2.878000000    -5.292000000
C    -0.135000000     2.920000000    -5.895000000
H    -0.051000000     2.715000000    -6.960000000
C     0.955000000     3.350000000    -5.102000000
O     2.252000000     3.685000000    -5.578000000
C     3.359000000     3.596000000    -4.776000000
C     3.735000000     2.261000000    -4.423000000
H     3.111000000     1.395000000    -4.626000000
C     4.158000000     4.683000000    -4.458000000
H     3.942000000     5.656000000    -4.892000000
C     5.356000000     4.490000000    -3.845000000
H     5.874000000     5.361000000    -3.452000000
C     5.791000000     3.182000000    -3.563000000
H     6.678000000     3.093000000    -2.940000000
C     4.956000000     2.073000000    -3.823000000
O     5.363000000     0.823000000    -3.417000000
C     5.353000000     0.448000000    -2.056000000
C     6.046000000    -0.693000000    -1.630000000
H     6.592000000    -1.244000000    -2.392000000
C     6.061000000    -1.041000000    -0.305000000
O     6.723000000    -2.201000000     0.065000000
C     6.372000000    -3.082000000     1.050000000
C     7.109000000    -3.072000000     2.271000000
H     7.971000000    -2.428000000     2.425000000
C     6.751000000    -4.012000000     3.222000000
H     7.423000000    -4.124000000     4.069000000
C     5.574000000    -4.815000000     3.106000000
H     5.348000000    -5.534000000     3.890000000
C     4.767000000    -4.679000000     1.964000000
C     5.262000000    -3.878000000     0.900000000
H     4.710000000    -3.960000000    -0.033000000
C     0.600000000    -1.926000000    -0.956000000
H     0.370000000    -2.950000000    -0.671000000
C    -0.200000000    -0.878000000    -0.509000000
H    -1.071000000    -1.115000000     0.096000000
C     0.095000000     0.402000000    -0.873000000
H    -0.575000000     1.197000000    -0.621000000
C     1.262000000     0.731000000    -1.590000000
H     1.437000000     1.773000000    -1.845000000
C     2.015000000    -0.360000000    -2.035000000
H     2.941000000    -0.115000000    -2.548000000
C     1.676000000    -1.682000000    -1.792000000
C     2.505000000    -2.752000000    -2.350000000
O     3.259000000    -2.475000000    -3.234000000
O     2.466000000    -3.961000000    -1.898000000
O     6.523000000     0.448000000    -5.999000000
H     6.040000000     0.374000000    -5.176000000
H     7.253000000    -0.164000000    -5.904000000
O     0.750000000    -5.821000000    -2.495000000
H     1.322000000    -5.078000000    -2.303000000
H     1.072000000    -6.522000000    -1.928000000
O     3.909000000    -6.527000000    -1.595000000
H     4.535000000    -6.028000000    -2.119000000
H     3.132000000    -5.969000000    -1.556000000
O     6.131000000    -7.225000000     0.003000000
H     5.725000000    -7.860000000     0.593000000
H     5.397000000    -6.847000000    -0.483000000
O     3.683000000    -2.298000000    -7.248000000
H     3.117000000    -2.665000000    -6.569000000
H     3.106000000    -2.181000000    -8.003000000
O     4.685000000    -4.758000000    -3.995000000
H     4.235000000    -5.252000000    -4.680000000
H     4.076000000    -4.054000000    -3.769000000
O     1.309000000    -7.643000000    -4.906000000
H     0.737000000    -7.932000000    -5.616000000
H     0.785000000    -7.006000000    -4.420000000
O     3.327000000    -6.117000000    -5.740000000
H     2.773000000    -6.777000000    -5.323000000
H     2.751000000    -5.361000000    -5.858000000
O     2.260000000    -3.526000000    -5.480000000
H     1.317000000    -3.369000000    -5.429000000
H     2.612000000    -3.129000000    -4.684000000
O     5.562000000    -1.920000000    -4.760000000
H     4.748000000    -1.932000000    -4.257000000
H     5.286000000    -1.733000000    -5.657000000
O     7.097000000    -4.013000000    -5.404000000
H     6.586000000    -3.311000000    -5.002000000
H     6.545000000    -4.790000000    -5.322000000
O     3.523000000    -8.662000000    -3.667000000
H     2.634000000    -8.636000000    -4.022000000
H     3.471000000    -8.163000000    -2.852000000
O    -0.957000000    -8.687000000    -3.117000000
H    -1.025000000    -7.742000000    -3.257000000
H    -0.161000000    -8.795000000    -2.596000000
O     5.864000000    -7.203000000    -5.691000000
H     5.009000000    -6.772000000    -5.719000000
H     5.671000000    -8.128000000    -5.843000000
O    -1.164000000    -1.215000000    -6.739000000
H    -1.570000000    -0.536000000    -7.278000000
H    -0.860000000    -0.752000000    -5.959000000
O    -0.582000000    -1.305000000    -3.954000000
H    -0.814000000    -2.232000000    -4.010000000
H    -0.180000000    -1.210000000    -3.091000000
O    -0.907000000    -4.165000000    -3.918000000
H    -0.379000000    -4.734000000    -3.356000000
H    -1.535000000    -4.756000000    -4.333000000
O     3.259000000     0.736000000    -7.483000000
H     2.892000000    -0.125000000    -7.684000000
H     2.543000000     1.210000000    -7.061000000
O     6.667000000    -5.010000000    -2.073000000
H     6.990000000    -4.135000000    -1.861000000
H     6.064000000    -4.872000000    -2.804000000
