215
-1476.90718
C    -3.980000000    -0.840000000    -2.946000000
H    -4.131000000     0.228000000    -3.079000000
C    -3.821000000    -1.376000000    -1.717000000
C    -3.494000000    -2.738000000    -1.564000000
H    -3.332000000    -3.150000000    -0.572000000
C    -3.945000000    -0.403000000    -0.522000000
O    -4.661000000     0.781000000    -0.792000000
H    -2.918000000    -0.138000000    -0.231000000
O    -4.472000000    -1.140000000     0.565000000
C    -3.821000000    -0.918000000     1.753000000
C    -3.053000000    -1.978000000     2.206000000
H    -3.037000000    -2.887000000     1.609000000
C    -2.302000000    -1.854000000     3.406000000
O    -1.482000000    -2.888000000     3.691000000
C    -2.273000000    -0.654000000     4.058000000
C    -1.454000000    -0.523000000     5.299000000
H    -1.928000000     0.061000000     6.091000000
C    -0.085000000    -0.114000000     4.903000000
C     0.073000000     1.261000000     4.698000000
H    -0.771000000     1.921000000     4.882000000
H    -1.422000000    -1.516000000     5.751000000
C    -3.069000000     0.400000000     3.612000000
H    -3.153000000     1.311000000     4.199000000
C    -3.822000000     0.309000000     2.437000000
C    -4.823000000     1.441000000     1.998000000
H    -5.160000000     1.909000000     2.925000000
H    -5.687000000     0.928000000     1.569000000
C    -4.260000000     2.324000000     0.972000000
C    -3.648000000     3.539000000     1.350000000
H    -3.558000000     3.921000000     2.364000000
C    -4.215000000     1.964000000    -0.374000000
C    -3.654000000     2.803000000    -1.353000000
H    -3.715000000     2.510000000    -2.398000000
C    -2.863000000     3.821000000    -0.894000000
O    -2.045000000     4.393000000    -1.834000000
C    -0.625000000     4.018000000    -1.738000000
C    -0.061000000     3.821000000    -3.146000000
C     1.319000000     3.931000000    -3.414000000
H     1.968000000     4.114000000    -2.563000000
C    -0.945000000     3.499000000    -4.186000000
H    -2.008000000     3.369000000    -4.000000000
O    -0.021000000     5.087000000    -1.022000000
H    -0.503000000     3.085000000    -1.168000000
C    -2.868000000     4.215000000     0.459000000
C    -1.932000000     5.299000000     1.016000000
H    -2.389000000     5.677000000     1.933000000
H    -1.940000000     6.125000000     0.302000000
C    -0.520000000     4.774000000     1.309000000
C    -0.134000000     4.287000000     2.552000000
H    -0.921000000     4.166000000     3.291000000
C     0.427000000     4.759000000     0.241000000
C     1.695000000     4.248000000     0.461000000
H     2.407000000     4.163000000    -0.355000000
C     2.022000000     3.773000000     1.738000000
O     3.233000000     3.119000000     1.780000000
C     3.141000000     1.690000000     1.895000000
C     4.067000000     0.925000000     1.016000000
C     4.774000000     1.474000000    -0.064000000
H     4.631000000     2.547000000    -0.161000000
C     4.214000000    -0.416000000     1.141000000
H     3.714000000    -0.966000000     1.934000000
O     3.419000000     1.216000000     3.213000000
H     2.097000000     1.427000000     1.667000000
C     1.151000000     3.767000000     2.827000000
C     1.521000000     3.303000000     4.187000000
H     0.912000000     3.844000000     4.915000000
H     2.592000000     3.479000000     4.310000000
C     1.268000000     1.768000000     4.282000000
C     2.299000000     0.829000000     3.953000000
C     2.130000000    -0.522000000     4.110000000
H     2.945000000    -1.199000000     3.867000000
C     0.950000000    -1.007000000     4.647000000
O     0.645000000    -2.370000000     4.523000000
C    -0.028000000    -2.885000000     3.360000000
H     0.118000000    -2.155000000     2.550000000
C     0.431000000    -4.249000000     3.058000000
C    -0.412000000    -5.043000000     2.329000000
H    -1.437000000    -4.776000000     2.083000000
C     1.758000000    -4.618000000     3.262000000
H     2.493000000    -3.929000000     3.672000000
C     2.256000000    -5.896000000     2.856000000
O     3.573000000    -6.142000000     3.029000000
C     1.387000000    -6.646000000     2.103000000
H     1.764000000    -7.594000000     1.729000000
C     0.049000000    -6.280000000     1.840000000
O    -0.735000000    -7.141000000     1.176000000
C    -1.946000000    -6.828000000     0.443000000
C    -1.867000000    -5.977000000    -0.707000000
H    -0.927000000    -5.497000000    -0.964000000
C    -3.141000000    -7.355000000     0.881000000
H    -3.208000000    -7.932000000     1.800000000
C    -4.367000000    -6.922000000     0.212000000
H    -5.318000000    -7.288000000     0.591000000
C    -4.258000000    -6.054000000    -0.947000000
H    -5.157000000    -5.755000000    -1.479000000
C    -2.965000000    -5.658000000    -1.441000000
O    -2.905000000    -4.859000000    -2.483000000
C    -3.338000000    -3.552000000    -2.644000000
C    -3.525000000    -3.013000000    -3.889000000
H    -3.398000000    -3.731000000    -4.694000000
C    -3.783000000    -1.636000000    -4.047000000
O    -3.866000000    -1.179000000    -5.359000000
C    -3.800000000     0.165000000    -5.761000000
C    -2.559000000     0.764000000    -5.912000000
H    -1.631000000     0.227000000    -5.735000000
C    -4.978000000     0.850000000    -6.022000000
H    -5.898000000     0.297000000    -5.852000000
C    -4.957000000     2.165000000    -6.439000000
H    -5.866000000     2.683000000    -6.734000000
C    -3.698000000     2.769000000    -6.684000000
H    -3.496000000     3.757000000    -7.089000000
C    -2.544000000     2.116000000    -6.273000000
O    -1.294000000     2.683000000    -6.414000000
C    -0.447000000     3.266000000    -5.444000000
C     0.862000000     3.513000000    -5.725000000
H     1.170000000     3.189000000    -6.716000000
C     1.784000000     3.825000000    -4.725000000
O     3.113000000     3.856000000    -4.946000000
C     4.119000000     3.783000000    -4.004000000
C     4.652000000     2.583000000    -3.560000000
H     4.262000000     1.620000000    -3.878000000
C     4.661000000     4.995000000    -3.524000000
H     4.246000000     5.890000000    -3.980000000
C     5.649000000     5.047000000    -2.600000000
H     5.976000000     6.001000000    -2.195000000
C     6.160000000     3.798000000    -2.140000000
H     7.010000000     3.774000000    -1.462000000
C     5.705000000     2.621000000    -2.666000000
O     6.080000000     1.414000000    -2.063000000
C     5.551000000     0.835000000    -0.962000000
C     5.679000000    -0.531000000    -0.818000000
H     6.166000000    -1.112000000    -1.597000000
C     5.081000000    -1.127000000     0.259000000
O     5.024000000    -2.484000000     0.218000000
C     5.178000000    -3.212000000     1.340000000
C     6.350000000    -3.064000000     2.074000000
H     7.053000000    -2.270000000     1.838000000
C     6.516000000    -3.916000000     3.190000000
H     7.347000000    -3.649000000     3.838000000
C     5.612000000    -4.974000000     3.487000000
H     5.815000000    -5.678000000     4.290000000
C     4.519000000    -5.163000000     2.675000000
C     4.354000000    -4.274000000     1.615000000
H     3.532000000    -4.536000000     0.955000000
C     0.958000000    -2.456000000    -1.195000000
H     1.133000000    -3.528000000    -1.242000000
C    -0.041000000    -1.816000000    -0.361000000
H    -0.758000000    -2.386000000     0.224000000
C    -0.088000000    -0.462000000    -0.286000000
H    -0.949000000    -0.045000000     0.238000000
C     0.900000000     0.288000000    -0.850000000
H     0.933000000     1.372000000    -0.770000000
C     1.914000000    -0.314000000    -1.615000000
H     2.733000000     0.259000000    -2.042000000
C     1.928000000    -1.684000000    -1.854000000
C     2.936000000    -2.346000000    -2.804000000
O     3.706000000    -1.720000000    -3.507000000
O     2.800000000    -3.512000000    -3.055000000
O     6.057000000    -7.211000000    -4.480000000
H     5.500000000    -6.641000000    -5.011000000
H     6.702000000    -6.620000000    -4.092000000
O     0.886000000    -2.092000000    -8.197000000
H     0.756000000    -2.069000000    -9.145000000
H     0.573000000    -1.241000000    -7.891000000
O     3.751000000    -2.337000000    -7.910000000
H     2.945000000    -1.934000000    -8.233000000
H     3.461000000    -2.930000000    -7.217000000
O     1.026000000    -8.255000000    -3.882000000
H     0.739000000    -7.474000000    -3.410000000
H     1.176000000    -7.952000000    -4.778000000
O     3.707000000    -7.326000000    -0.208000000
H     3.535000000    -8.052000000    -0.808000000
H     3.660000000    -6.544000000    -0.759000000
O     1.019000000    -5.544000000    -2.763000000
H     1.587000000    -4.834000000    -3.064000000
H     1.618000000    -6.184000000    -2.379000000
O     2.299000000    -0.127000000    -5.177000000
H     2.841000000     0.353000000    -5.804000000
H     2.928000000    -0.588000000    -4.621000000
O     6.529000000     1.062000000    -5.451000000
H     6.413000000     0.136000000    -5.237000000
H     7.020000000     1.419000000    -4.711000000
O     5.923000000    -3.632000000    -2.934000000
H     5.743000000    -3.562000000    -3.872000000
H     5.110000000    -3.354000000    -2.513000000
O     3.761000000     1.092000000    -7.145000000
H     3.655000000     0.681000000    -8.003000000
H     4.708000000     1.177000000    -7.036000000
O     0.551000000     0.395000000    -7.027000000
H     0.374000000     1.293000000    -6.747000000
H     1.221000000     0.082000000    -6.419000000
O     3.890000000    -6.196000000    -2.542000000
H     4.004000000    -5.314000000    -2.896000000
H     4.097000000    -6.776000000    -3.274000000
O     7.175000000    -4.849000000    -0.809000000
H     7.027000000    -4.509000000    -1.691000000
H     6.300000000    -4.909000000    -0.425000000
O     2.415000000    -3.654000000    -5.824000000
H     1.462000000    -3.726000000    -5.885000000
H     2.572000000    -3.300000000    -4.949000000
O     8.532000000    -2.915000000    -4.353000000
H     7.742000000    -2.425000000    -4.124000000
H     8.905000000    -3.176000000    -3.511000000
O     5.546000000    -1.736000000    -5.547000000
H     4.997000000    -1.712000000    -4.763000000
H     4.937000000    -1.582000000    -6.270000000
O    -0.061000000    -1.232000000    -4.172000000
H     0.669000000    -0.804000000    -4.620000000
H     0.061000000    -1.011000000    -3.249000000
O    -0.228000000    -3.860000000    -5.074000000
H    -0.359000000    -3.060000000    -4.566000000
H    -0.387000000    -4.569000000    -4.451000000
O     4.235000000    -5.814000000    -5.766000000
H     3.499000000    -5.205000000    -5.702000000
H     3.965000000    -6.448000000    -6.430000000
