215
-1448.66926
C    -4.958000000    -1.162000000    -1.849000000
H    -5.451000000    -0.194000000    -1.807000000
C    -4.318000000    -1.636000000    -0.661000000
C    -3.708000000    -2.856000000    -0.628000000
H    -3.208000000    -3.040000000     0.320000000
C    -4.217000000    -0.665000000     0.512000000
O    -5.124000000     0.491000000     0.384000000
H    -3.181000000    -0.326000000     0.660000000
O    -4.595000000    -1.330000000     1.733000000
C    -3.761000000    -1.112000000     2.801000000
C    -2.740000000    -2.069000000     3.022000000
H    -2.730000000    -2.950000000     2.384000000
C    -1.695000000    -1.869000000     3.951000000
O    -0.698000000    -2.753000000     4.094000000
C    -1.613000000    -0.617000000     4.517000000
C    -0.428000000    -0.360000000     5.552000000
H    -0.756000000     0.385000000     6.279000000
C     0.804000000     0.199000000     4.888000000
C     1.038000000     1.582000000     4.775000000
H     0.317000000     2.282000000     5.190000000
H    -0.251000000    -1.255000000     6.152000000
C    -2.565000000     0.399000000     4.264000000
H    -2.450000000     1.398000000     4.676000000
C    -3.631000000     0.172000000     3.392000000
C    -4.532000000     1.353000000     3.084000000
H    -4.719000000     2.031000000     3.920000000
H    -5.523000000     0.988000000     2.807000000
C    -4.136000000     2.123000000     1.821000000
C    -3.363000000     3.276000000     1.968000000
H    -3.065000000     3.669000000     2.937000000
C    -4.581000000     1.690000000     0.536000000
C    -4.050000000     2.289000000    -0.614000000
H    -4.268000000     1.921000000    -1.613000000
C    -3.161000000     3.384000000    -0.426000000
O    -2.528000000     3.971000000    -1.504000000
C    -1.175000000     3.481000000    -1.812000000
C    -0.963000000     3.303000000    -3.201000000
C     0.254000000     3.480000000    -3.832000000
H     1.151000000     3.803000000    -3.310000000
C    -1.981000000     2.802000000    -3.989000000
H    -2.863000000     2.537000000    -3.411000000
O    -0.262000000     4.513000000    -1.380000000
H    -0.918000000     2.585000000    -1.228000000
C    -2.911000000     3.926000000     0.855000000
C    -1.900000000     5.098000000     1.045000000
H    -2.060000000     5.533000000     2.034000000
H    -2.006000000     5.906000000     0.318000000
C    -0.428000000     4.614000000     1.088000000
C     0.200000000     4.259000000     2.278000000
H    -0.231000000     4.406000000     3.265000000
C     0.312000000     4.404000000    -0.096000000
C     1.610000000     4.060000000    -0.031000000
H     2.140000000     3.881000000    -0.963000000
C     2.305000000     3.792000000     1.116000000
O     3.521000000     3.112000000     1.127000000
C     3.662000000     1.739000000     1.303000000
C     4.648000000     1.144000000     0.277000000
C     4.477000000     1.541000000    -1.100000000
H     3.632000000     2.152000000    -1.406000000
C     5.586000000     0.154000000     0.563000000
H     5.701000000    -0.259000000     1.562000000
O     4.026000000     1.494000000     2.646000000
H     2.707000000     1.270000000     1.024000000
C     1.567000000     3.862000000     2.335000000
C     2.239000000     3.576000000     3.665000000
H     1.785000000     4.151000000     4.476000000
H     3.291000000     3.867000000     3.679000000
C     2.093000000     2.058000000     3.999000000
C     2.973000000     1.089000000     3.453000000
C     2.840000000    -0.302000000     3.793000000
H     3.643000000    -0.949000000     3.448000000
C     1.724000000    -0.687000000     4.438000000
O     1.542000000    -2.055000000     4.403000000
C     0.602000000    -2.554000000     3.454000000
H     0.373000000    -1.755000000     2.733000000
C     1.138000000    -3.682000000     2.662000000
C     0.221000000    -4.777000000     2.363000000
H    -0.810000000    -4.793000000     2.707000000
C     2.448000000    -3.708000000     2.149000000
H     3.072000000    -2.839000000     2.338000000
C     2.986000000    -4.880000000     1.561000000
O     4.247000000    -5.113000000     1.248000000
C     2.128000000    -5.977000000     1.381000000
H     2.577000000    -6.856000000     0.926000000
C     0.764000000    -5.925000000     1.709000000
O    -0.050000000    -6.985000000     1.380000000
C    -1.310000000    -6.835000000     0.848000000
C    -1.460000000    -5.904000000    -0.170000000
H    -0.559000000    -5.505000000    -0.630000000
C    -2.403000000    -7.356000000     1.509000000
H    -2.264000000    -7.950000000     2.408000000
C    -3.724000000    -7.105000000     0.991000000
H    -4.585000000    -7.583000000     1.453000000
C    -3.820000000    -6.323000000    -0.139000000
H    -4.778000000    -6.117000000    -0.611000000
C    -2.708000000    -5.676000000    -0.709000000
O    -2.769000000    -4.761000000    -1.784000000
C    -3.592000000    -3.607000000    -1.788000000
C    -4.175000000    -3.144000000    -2.978000000
H    -4.089000000    -3.772000000    -3.861000000
C    -4.773000000    -1.898000000    -3.011000000
O    -5.381000000    -1.497000000    -4.204000000
C    -5.303000000    -0.199000000    -4.583000000
C    -4.096000000     0.319000000    -5.036000000
H    -3.169000000    -0.244000000    -5.105000000
C    -6.475000000     0.498000000    -4.818000000
H    -7.418000000     0.033000000    -4.542000000
C    -6.406000000     1.862000000    -5.077000000
H    -7.242000000     2.477000000    -5.402000000
C    -5.187000000     2.429000000    -5.405000000
H    -5.214000000     3.418000000    -5.855000000
C    -4.037000000     1.639000000    -5.457000000
O    -2.876000000     2.023000000    -6.053000000
C    -1.902000000     2.644000000    -5.341000000
C    -0.660000000     2.750000000    -5.940000000
H    -0.648000000     2.621000000    -7.019000000
C     0.375000000     3.290000000    -5.245000000
O     1.534000000     3.457000000    -5.878000000
C     2.828000000     3.518000000    -5.294000000
C     3.353000000     2.338000000    -4.704000000
H     2.782000000     1.414000000    -4.692000000
C     3.535000000     4.753000000    -5.147000000
H     3.087000000     5.607000000    -5.649000000
C     4.813000000     4.789000000    -4.445000000
H     5.341000000     5.717000000    -4.242000000
C     5.264000000     3.605000000    -3.841000000
H     6.144000000     3.533000000    -3.207000000
C     4.496000000     2.396000000    -3.980000000
O     4.941000000     1.257000000    -3.495000000
C     5.301000000     1.019000000    -2.133000000
C     6.193000000     0.011000000    -1.796000000
H     6.734000000    -0.463000000    -2.612000000
C     6.307000000    -0.426000000    -0.474000000
O     7.111000000    -1.546000000    -0.160000000
C     6.788000000    -2.550000000     0.701000000
C     7.551000000    -2.671000000     1.857000000
H     8.479000000    -2.106000000     1.892000000
C     7.100000000    -3.532000000     2.876000000
H     7.705000000    -3.638000000     3.772000000
C     5.989000000    -4.348000000     2.632000000
H     5.650000000    -5.046000000     3.393000000
C     5.293000000    -4.214000000     1.445000000
C     5.617000000    -3.275000000     0.495000000
H     4.960000000    -2.974000000    -0.316000000
C     0.370000000    -2.227000000    -0.818000000
H     0.131000000    -3.282000000    -0.713000000
C    -0.402000000    -1.321000000    -0.099000000
H    -1.186000000    -1.740000000     0.527000000
C    -0.072000000     0.028000000     0.019000000
H    -0.728000000     0.736000000     0.542000000
C     1.017000000     0.492000000    -0.749000000
H     1.360000000     1.522000000    -0.680000000
C     1.825000000    -0.412000000    -1.444000000
H     2.623000000     0.016000000    -2.045000000
C     1.477000000    -1.765000000    -1.493000000
C     2.353000000    -2.777000000    -2.254000000
O     3.321000000    -2.401000000    -2.859000000
O     2.135000000    -3.954000000    -2.265000000
O    -0.847000000    -6.807000000    -3.425000000
H    -0.500000000    -7.608000000    -3.032000000
H    -1.229000000    -7.094000000    -4.255000000
O     1.653000000    -6.585000000    -1.797000000
H     1.699000000    -5.661000000    -2.044000000
H     0.837000000    -6.660000000    -1.301000000
O     1.389000000    -4.667000000    -9.260000000
H     1.985000000    -4.559000000    -8.518000000
H     0.943000000    -5.497000000    -9.090000000
O     4.241000000    -5.469000000    -1.848000000
H     3.568000000    -4.805000000    -1.996000000
H     3.771000000    -6.201000000    -1.449000000
O    -1.230000000    -3.659000000    -6.008000000
H    -1.341000000    -4.604000000    -6.107000000
H    -0.844000000    -3.552000000    -5.139000000
O     5.781000000    -7.837000000     1.344000000
H     5.493000000    -6.997000000     0.986000000
H     5.158000000    -8.023000000     2.047000000
O     5.843000000    -3.222000000    -8.146000000
H     4.924000000    -3.475000000    -8.229000000
H     6.189000000    -3.278000000    -9.037000000
O     5.885000000    -3.695000000    -3.281000000
H     5.349000000    -2.972000000    -2.955000000
H     5.551000000    -4.467000000    -2.823000000
O     8.540000000    -5.157000000    -4.978000000
H     8.372000000    -5.785000000    -5.681000000
H     7.978000000    -4.410000000    -5.185000000
O     2.734000000    -6.862000000    -4.190000000
H     2.309000000    -6.915000000    -3.334000000
H     3.495000000    -6.299000000    -4.044000000
O     2.393000000    -3.976000000    -5.084000000
H     1.450000000    -3.855000000    -4.971000000
H     2.759000000    -3.839000000    -4.210000000
O     3.874000000    -1.103000000    -5.136000000
H     3.779000000    -1.725000000    -4.415000000
H     4.189000000    -0.300000000    -4.721000000
O     7.280000000    -3.085000000    -5.814000000
H     6.682000000    -3.095000000    -6.561000000
H     6.722000000    -2.881000000    -5.063000000
O     2.002000000    -7.081000000    -6.787000000
H     2.245000000    -7.000000000    -5.864000000
H     1.213000000    -7.623000000    -6.781000000
O     3.068000000    -1.504000000    -7.955000000
H     2.138000000    -1.729000000    -7.969000000
H     3.237000000    -1.238000000    -7.051000000
O    -0.019000000    -2.173000000    -7.869000000
H    -0.520000000    -2.481000000    -7.113000000
H    -0.032000000    -2.909000000    -8.481000000
O    -0.205000000    -4.150000000    -3.491000000
H    -0.571000000    -5.011000000    -3.289000000
H     0.657000000    -4.153000000    -3.076000000
O     3.425000000    -4.798000000    -7.450000000
H     3.314000000    -5.726000000    -7.245000000
H     3.070000000    -4.340000000    -6.688000000
O     8.525000000    -3.595000000    -2.102000000
H     8.851000000    -2.749000000    -2.406000000
H     7.635000000    -3.649000000    -2.451000000
