215
-1428.79454
C    -4.137000000    -1.256000000    -2.731000000
H    -4.814000000    -0.406000000    -2.702000000
C    -3.587000000    -1.568000000    -1.490000000
C    -2.662000000    -2.643000000    -1.408000000
H    -2.299000000    -2.927000000    -0.424000000
C    -3.796000000    -0.768000000    -0.212000000
O    -4.735000000     0.324000000    -0.430000000
H    -2.780000000    -0.425000000     0.035000000
O    -4.252000000    -1.567000000     0.891000000
C    -3.802000000    -1.271000000     2.216000000
C    -3.216000000    -2.395000000     2.869000000
H    -3.243000000    -3.301000000     2.268000000
C    -2.505000000    -2.210000000     4.025000000
O    -1.544000000    -3.158000000     4.405000000
C    -2.503000000    -0.962000000     4.561000000
C    -1.567000000    -0.570000000     5.737000000
H    -2.130000000     0.092000000     6.398000000
C    -0.260000000     0.011000000     5.099000000
C    -0.131000000     1.384000000     4.782000000
H    -0.962000000     2.030000000     5.057000000
H    -1.400000000    -1.465000000     6.340000000
C    -3.300000000     0.124000000     4.071000000
H    -3.428000000     1.086000000     4.562000000
C    -3.868000000    -0.042000000     2.795000000
C    -4.898000000     1.012000000     2.277000000
H    -5.239000000     1.573000000     3.150000000
H    -5.788000000     0.609000000     1.790000000
C    -4.305000000     1.969000000     1.231000000
C    -3.718000000     3.226000000     1.486000000
H    -3.743000000     3.584000000     2.512000000
C    -4.286000000     1.526000000    -0.080000000
C    -3.766000000     2.341000000    -1.115000000
H    -3.715000000     2.088000000    -2.171000000
C    -3.180000000     3.530000000    -0.811000000
O    -2.463000000     4.117000000    -1.795000000
C    -0.977000000     3.892000000    -1.807000000
C    -0.442000000     3.577000000    -3.210000000
C     0.829000000     4.043000000    -3.498000000
H     1.431000000     4.522000000    -2.729000000
C    -1.155000000     2.957000000    -4.238000000
H    -2.164000000     2.641000000    -3.986000000
O    -0.386000000     5.074000000    -1.195000000
H    -0.847000000     3.022000000    -1.146000000
C    -3.108000000     3.964000000     0.514000000
C    -2.349000000     5.233000000     0.877000000
H    -2.676000000     5.705000000     1.805000000
H    -2.522000000     5.896000000     0.026000000
C    -0.895000000     4.809000000     1.060000000
C    -0.446000000     4.405000000     2.349000000
H    -1.173000000     4.422000000     3.157000000
C     0.034000000     4.929000000     0.045000000
C     1.344000000     4.460000000     0.256000000
H     2.050000000     4.393000000    -0.568000000
C     1.705000000     3.918000000     1.447000000
O     2.915000000     3.272000000     1.589000000
C     2.883000000     1.820000000     1.653000000
C     3.943000000     1.111000000     0.684000000
C     4.434000000     1.828000000    -0.393000000
H     4.176000000     2.880000000    -0.484000000
C     4.266000000    -0.241000000     0.845000000
H     3.865000000    -0.824000000     1.670000000
O     3.111000000     1.322000000     2.977000000
H     1.882000000     1.508000000     1.320000000
C     0.831000000     3.891000000     2.503000000
C     1.223000000     3.359000000     3.898000000
H     0.604000000     3.956000000     4.571000000
H     2.294000000     3.522000000     4.028000000
C     1.016000000     1.868000000     4.153000000
C     1.991000000     0.961000000     3.793000000
C     1.894000000    -0.390000000     4.157000000
H     2.711000000    -1.075000000     3.947000000
C     0.817000000    -0.873000000     4.853000000
O     0.712000000    -2.254000000     4.970000000
C    -0.157000000    -2.862000000     4.017000000
H    -0.244000000    -2.115000000     3.214000000
C     0.518000000    -4.136000000     3.382000000
C    -0.218000000    -5.045000000     2.677000000
H    -1.278000000    -4.903000000     2.478000000
C     1.897000000    -4.276000000     3.444000000
H     2.441000000    -3.559000000     4.055000000
C     2.516000000    -5.373000000     2.802000000
O     3.913000000    -5.609000000     2.891000000
C     1.789000000    -6.302000000     2.168000000
H     2.248000000    -7.096000000     1.584000000
C     0.446000000    -6.108000000     2.111000000
O    -0.258000000    -7.004000000     1.447000000
C    -1.168000000    -6.628000000     0.496000000
C    -0.953000000    -5.603000000    -0.385000000
H    -0.059000000    -4.984000000    -0.389000000
C    -2.295000000    -7.394000000     0.459000000
H    -2.419000000    -8.139000000     1.240000000
C    -3.219000000    -7.182000000    -0.511000000
H    -4.170000000    -7.708000000    -0.539000000
C    -2.967000000    -6.241000000    -1.537000000
H    -3.796000000    -6.099000000    -2.226000000
C    -1.884000000    -5.428000000    -1.411000000
O    -1.662000000    -4.539000000    -2.437000000
C    -2.436000000    -3.404000000    -2.513000000
C    -3.066000000    -3.120000000    -3.707000000
H    -2.883000000    -3.809000000    -4.527000000
C    -3.752000000    -1.930000000    -3.843000000
O    -4.246000000    -1.596000000    -5.081000000
C    -3.901000000    -0.419000000    -5.728000000
C    -2.799000000     0.413000000    -5.484000000
H    -2.061000000     0.146000000    -4.732000000
C    -4.680000000    -0.227000000    -6.793000000
H    -5.574000000    -0.829000000    -6.934000000
C    -4.509000000     0.836000000    -7.638000000
H    -5.157000000     0.960000000    -8.501000000
C    -3.412000000     1.717000000    -7.395000000
H    -3.133000000     2.463000000    -8.135000000
C    -2.556000000     1.464000000    -6.330000000
O    -1.272000000     1.983000000    -6.445000000
C    -0.590000000     2.738000000    -5.479000000
C     0.707000000     3.131000000    -5.705000000
H     1.211000000     2.939000000    -6.649000000
C     1.408000000     3.794000000    -4.725000000
O     2.657000000     4.288000000    -5.019000000
C     3.738000000     4.325000000    -4.159000000
C     4.222000000     3.088000000    -3.645000000
H     3.783000000     2.195000000    -4.081000000
C     4.337000000     5.546000000    -3.758000000
H     3.829000000     6.428000000    -4.141000000
C     5.488000000     5.502000000    -2.881000000
H     5.979000000     6.401000000    -2.517000000
C     5.973000000     4.257000000    -2.502000000
H     6.933000000     4.133000000    -2.008000000
C     5.396000000     3.064000000    -2.883000000
O     5.888000000     1.899000000    -2.344000000
C     5.307000000     1.192000000    -1.299000000
C     5.616000000    -0.185000000    -1.112000000
H     6.279000000    -0.674000000    -1.820000000
C     5.115000000    -0.869000000    -0.024000000
O     5.637000000    -2.147000000     0.202000000
C     5.497000000    -2.694000000     1.400000000
C     6.180000000    -2.214000000     2.511000000
H     6.776000000    -1.322000000     2.332000000
C     6.184000000    -2.873000000     3.746000000
H     6.627000000    -2.353000000     4.592000000
C     5.373000000    -4.007000000     3.872000000
H     5.373000000    -4.603000000     4.781000000
C     4.682000000    -4.469000000     2.792000000
C     4.774000000    -3.812000000     1.542000000
H     4.274000000    -4.200000000     0.658000000
C     1.918000000    -2.106000000    -0.587000000
H     2.777000000    -2.771000000    -0.571000000
C     1.290000000    -1.731000000     0.608000000
H     1.467000000    -2.329000000     1.499000000
C     0.314000000    -0.721000000     0.704000000
H    -0.160000000    -0.483000000     1.698000000
C     0.051000000     0.008000000    -0.426000000
H    -0.689000000     0.803000000    -0.459000000
C     0.803000000    -0.251000000    -1.610000000
H     0.460000000     0.338000000    -2.457000000
C     1.783000000    -1.263000000    -1.703000000
C     2.687000000    -1.500000000    -2.871000000
O     2.965000000    -0.734000000    -3.723000000
O     3.317000000    -2.562000000    -3.012000000
O     4.135000000    -6.184000000    -4.373000000
H     4.278000000    -7.025000000    -3.939000000
H     4.227000000    -6.377000000    -5.306000000
O     0.452000000    -7.033000000    -3.614000000
H    -0.275000000    -6.853000000    -4.211000000
H     0.947000000    -6.214000000    -3.587000000
O     4.609000000    -6.933000000    -0.347000000
H     3.894000000    -7.441000000    -0.730000000
H     4.738000000    -6.205000000    -0.954000000
O     1.593000000    -4.581000000    -3.704000000
H     2.056000000    -3.768000000    -3.504000000
H     2.260000000    -5.148000000    -4.091000000
O     2.549000000    -0.124000000    -8.517000000
H     2.417000000    -1.008000000    -8.859000000
H     3.277000000    -0.211000000    -7.902000000
O     6.248000000     1.552000000    -5.334000000
H     5.429000000     1.125000000    -5.585000000
H     6.071000000     1.920000000    -4.469000000
O     5.865000000    -2.921000000    -4.271000000
H     5.753000000    -2.916000000    -5.222000000
H     4.992000000    -2.729000000    -3.927000000
O    -2.203000000    -2.619000000    -7.722000000
H    -1.470000000    -2.858000000    -7.156000000
H    -1.943000000    -1.784000000    -8.111000000
O    -0.793000000    -0.153000000    -8.697000000
H    -0.053000000     0.225000000    -9.172000000
H    -0.658000000     0.118000000    -7.789000000
O     4.670000000    -4.911000000    -2.155000000
H     4.270000000    -4.051000000    -2.277000000
H     4.439000000    -5.398000000    -2.945000000
O     7.452000000    -4.743000000    -0.644000000
H     6.759000000    -4.316000000    -1.148000000
H     8.264000000    -4.398000000    -1.015000000
O     3.595000000    -3.754000000    -7.483000000
H     3.000000000    -3.525000000    -8.197000000
H     3.151000000    -4.465000000    -7.021000000
O     8.387000000    -3.970000000    -4.343000000
H     7.489000000    -3.762000000    -4.084000000
H     8.868000000    -4.025000000    -3.517000000
O     4.046000000    -0.201000000    -6.089000000
H     3.671000000    -0.411000000    -5.234000000
H     4.477000000    -1.009000000    -6.367000000
O     2.400000000    -8.009000000    -1.668000000
H     2.023000000    -7.276000000    -2.155000000
H     2.208000000    -8.777000000    -2.205000000
O     1.247000000    -1.374000000    -6.156000000
H     1.884000000    -0.972000000    -6.747000000
H     1.416000000    -0.965000000    -5.307000000
O    -0.326000000    -3.563000000    -5.453000000
H    -0.006000000    -4.095000000    -4.725000000
H     0.152000000    -2.737000000    -5.376000000
O     1.662000000    -5.833000000    -6.619000000
H     0.930000000    -5.319000000    -6.280000000
H     1.326000000    -6.228000000    -7.424000000
O     5.843000000    -2.069000000    -7.288000000
H     6.646000000    -2.589000000    -7.248000000
H     5.161000000    -2.700000000    -7.516000000
