215
-1461.77549
C    -3.923000000    -1.475000000    -2.926000000
H    -4.589000000    -0.657000000    -3.190000000
C    -3.473000000    -1.754000000    -1.610000000
C    -2.704000000    -2.853000000    -1.371000000
H    -2.368000000    -2.994000000    -0.346000000
C    -3.743000000    -0.901000000    -0.411000000
O    -4.706000000     0.097000000    -0.681000000
H    -2.773000000    -0.445000000    -0.167000000
O    -4.309000000    -1.611000000     0.726000000
C    -3.760000000    -1.285000000     1.915000000
C    -3.030000000    -2.325000000     2.532000000
H    -2.784000000    -3.315000000     2.157000000
C    -2.360000000    -1.990000000     3.759000000
O    -1.413000000    -2.824000000     4.311000000
C    -2.503000000    -0.728000000     4.323000000
C    -1.621000000    -0.337000000     5.464000000
H    -2.202000000     0.317000000     6.118000000
C    -0.348000000     0.243000000     4.914000000
C    -0.229000000     1.633000000     4.681000000
H    -1.167000000     2.156000000     4.848000000
H    -1.385000000    -1.217000000     6.066000000
C    -3.427000000     0.178000000     3.794000000
H    -3.529000000     1.161000000     4.248000000
C    -4.092000000    -0.093000000     2.617000000
C    -5.058000000     0.881000000     2.074000000
H    -5.412000000     1.493000000     2.907000000
H    -5.927000000     0.333000000     1.706000000
C    -4.327000000     1.770000000     1.024000000
C    -3.891000000     3.116000000     1.278000000
H    -3.850000000     3.520000000     2.286000000
C    -4.285000000     1.334000000    -0.276000000
C    -3.693000000     2.092000000    -1.251000000
H    -3.798000000     1.722000000    -2.268000000
C    -3.163000000     3.349000000    -0.976000000
O    -2.467000000     3.953000000    -1.948000000
C    -1.054000000     3.708000000    -2.025000000
C    -0.569000000     3.376000000    -3.426000000
C     0.780000000     3.646000000    -3.743000000
H     1.321000000     4.235000000    -3.007000000
C    -1.295000000     2.603000000    -4.346000000
H    -2.280000000     2.312000000    -3.992000000
O    -0.395000000     4.826000000    -1.494000000
H    -0.729000000     2.811000000    -1.477000000
C    -3.316000000     3.860000000     0.280000000
C    -2.442000000     5.127000000     0.588000000
H    -2.952000000     5.622000000     1.417000000
H    -2.432000000     5.772000000    -0.293000000
C    -1.009000000     4.800000000     0.862000000
C    -0.671000000     4.484000000     2.188000000
H    -1.400000000     4.548000000     2.991000000
C    -0.043000000     4.755000000    -0.121000000
C     1.264000000     4.457000000     0.194000000
H     2.022000000     4.355000000    -0.578000000
C     1.668000000     4.076000000     1.470000000
O     2.986000000     3.581000000     1.630000000
C     3.118000000     2.144000000     1.929000000
C     4.175000000     1.463000000     1.071000000
C     4.613000000     2.101000000    -0.102000000
H     4.343000000     3.123000000    -0.355000000
C     4.597000000     0.169000000     1.264000000
H     4.203000000    -0.381000000     2.115000000
O     3.190000000     1.895000000     3.366000000
H     2.168000000     1.702000000     1.592000000
C     0.673000000     4.052000000     2.484000000
C     1.112000000     3.738000000     3.918000000
H     0.441000000     4.254000000     4.609000000
H     2.118000000     4.103000000     4.132000000
C     0.943000000     2.198000000     4.192000000
C     2.049000000     1.362000000     3.927000000
C     2.031000000    -0.001000000     4.312000000
H     2.913000000    -0.606000000     4.114000000
C     0.788000000    -0.516000000     4.712000000
O     0.681000000    -1.875000000     4.895000000
C    -0.057000000    -2.665000000     3.886000000
H    -0.183000000    -1.983000000     3.032000000
C     0.611000000    -3.960000000     3.573000000
C    -0.091000000    -4.969000000     2.881000000
H    -1.168000000    -4.875000000     2.764000000
C     1.982000000    -4.102000000     3.680000000
H     2.560000000    -3.272000000     4.077000000
C     2.619000000    -5.228000000     3.150000000
O     3.957000000    -5.280000000     3.151000000
C     1.913000000    -6.274000000     2.519000000
H     2.512000000    -7.087000000     2.116000000
C     0.565000000    -6.120000000     2.417000000
O    -0.123000000    -7.053000000     1.778000000
C    -0.995000000    -6.828000000     0.753000000
C    -0.818000000    -5.839000000    -0.273000000
H     0.074000000    -5.218000000    -0.239000000
C    -2.129000000    -7.580000000     0.758000000
H    -2.410000000    -8.296000000     1.525000000
C    -3.118000000    -7.381000000    -0.221000000
H    -4.110000000    -7.822000000    -0.159000000
C    -2.927000000    -6.434000000    -1.190000000
H    -3.686000000    -6.314000000    -1.960000000
C    -1.787000000    -5.690000000    -1.240000000
O    -1.600000000    -4.753000000    -2.241000000
C    -2.457000000    -3.720000000    -2.402000000
C    -2.828000000    -3.492000000    -3.631000000
H    -2.576000000    -4.176000000    -4.437000000
C    -3.615000000    -2.377000000    -3.921000000
O    -4.098000000    -2.088000000    -5.201000000
C    -3.991000000    -0.848000000    -5.718000000
C    -2.805000000    -0.139000000    -5.786000000
H    -2.025000000    -0.673000000    -5.248000000
C    -5.068000000    -0.372000000    -6.467000000
H    -6.005000000    -0.913000000    -6.365000000
C    -4.906000000     0.844000000    -7.247000000
H    -5.786000000     1.182000000    -7.787000000
C    -3.725000000     1.520000000    -7.246000000
H    -3.566000000     2.249000000    -8.037000000
C    -2.684000000     1.071000000    -6.471000000
O    -1.463000000     1.709000000    -6.621000000
C    -0.745000000     2.204000000    -5.550000000
C     0.533000000     2.658000000    -5.918000000
H     0.885000000     2.340000000    -6.896000000
C     1.357000000     3.253000000    -4.946000000
O     2.644000000     3.417000000    -5.293000000
C     3.644000000     3.846000000    -4.423000000
C     4.354000000     2.916000000    -3.706000000
H     3.908000000     1.925000000    -3.721000000
C     4.142000000     5.168000000    -4.363000000
H     3.647000000     5.878000000    -5.021000000
C     5.194000000     5.580000000    -3.640000000
H     5.386000000     6.649000000    -3.595000000
C     5.840000000     4.556000000    -2.867000000
H     6.738000000     4.840000000    -2.324000000
C     5.391000000     3.233000000    -2.887000000
O     5.997000000     2.175000000    -2.154000000
C     5.537000000     1.509000000    -1.019000000
C     5.952000000     0.216000000    -0.771000000
H     6.627000000    -0.268000000    -1.472000000
C     5.509000000    -0.461000000     0.336000000
O     5.835000000    -1.808000000     0.565000000
C     5.719000000    -2.385000000     1.781000000
C     6.236000000    -1.795000000     2.925000000
H     6.777000000    -0.853000000     2.937000000
C     6.060000000    -2.431000000     4.176000000
H     6.604000000    -1.942000000     4.979000000
C     5.310000000    -3.593000000     4.230000000
H     5.284000000    -4.199000000     5.132000000
C     4.817000000    -4.199000000     3.099000000
C     4.956000000    -3.614000000     1.887000000
H     4.579000000    -4.035000000     0.958000000
C     2.145000000    -1.495000000    -0.510000000
H     2.975000000    -2.193000000    -0.444000000
C     1.374000000    -1.396000000     0.653000000
H     1.598000000    -2.008000000     1.523000000
C     0.375000000    -0.395000000     0.694000000
H    -0.235000000    -0.108000000     1.566000000
C     0.043000000     0.341000000    -0.422000000
H    -0.777000000     1.049000000    -0.510000000
C     0.743000000     0.135000000    -1.615000000
H     0.577000000     0.715000000    -2.519000000
C     1.801000000    -0.775000000    -1.672000000
C     2.698000000    -0.848000000    -2.908000000
O     2.430000000    -0.230000000    -3.910000000
O     3.670000000    -1.581000000    -2.915000000
O     2.443000000    -7.244000000    -2.614000000
H     2.610000000    -8.155000000    -2.856000000
H     2.574000000    -6.753000000    -3.425000000
O     3.147000000    -5.682000000    -0.564000000
H     2.762000000    -6.170000000    -1.292000000
H     3.592000000    -4.943000000    -0.979000000
O     0.791000000    -3.608000000    -3.522000000
H     0.275000000    -4.145000000    -2.920000000
H     1.544000000    -3.324000000    -3.004000000
O     3.704000000    -0.038000000    -9.212000000
H     2.784000000    -0.299000000    -9.254000000
H     3.856000000     0.159000000    -8.288000000
O     8.267000000     2.129000000    -3.535000000
H     8.178000000     1.328000000    -4.051000000
H     7.474000000     2.159000000    -3.001000000
O     6.092000000    -4.151000000    -4.535000000
H     6.395000000    -3.911000000    -5.410000000
H     5.150000000    -3.982000000    -4.554000000
O    -1.448000000    -2.723000000    -6.913000000
H    -0.972000000    -2.324000000    -6.185000000
H    -1.301000000    -2.129000000    -7.650000000
O     1.180000000    -0.887000000    -8.265000000
H     0.286000000    -0.555000000    -8.352000000
H     1.156000000    -1.437000000    -7.482000000
O     4.444000000    -3.628000000    -1.664000000
H     4.151000000    -2.857000000    -2.150000000
H     5.392000000    -3.515000000    -1.586000000
O     8.327000000    -3.109000000     0.408000000
H     8.770000000    -2.276000000     0.566000000
H     7.496000000    -2.865000000     0.000000000
O     3.442000000    -3.432000000    -4.837000000
H     3.241000000    -2.806000000    -5.533000000
H     3.532000000    -2.894000000    -4.051000000
O     7.432000000    -3.697000000    -2.309000000
H     6.980000000    -4.128000000    -3.034000000
H     8.154000000    -3.225000000    -2.724000000
O     5.371000000    -0.615000000    -4.663000000
H     4.775000000    -0.771000000    -3.930000000
H     4.811000000    -0.262000000    -5.355000000
O     7.579000000     0.341000000    -5.653000000
H     7.640000000    -0.070000000    -6.514000000
H     6.985000000    -0.224000000    -5.159000000
O     3.349000000     0.612000000    -6.129000000
H     2.938000000     1.457000000    -6.308000000
H     2.919000000     0.299000000    -5.333000000
O     0.944000000    -1.847000000    -5.534000000
H     0.982000000    -2.474000000    -4.811000000
H     1.240000000    -1.021000000    -5.150000000
O     4.163000000     2.785000000    -8.139000000
H     4.941000000     2.703000000    -8.690000000
H     4.429000000     2.420000000    -7.294000000
O     2.392000000    -5.913000000    -5.448000000
H     2.788000000    -6.074000000    -6.304000000
H     2.679000000    -5.030000000    -5.214000000
O     6.739000000    -1.702000000    -7.797000000
H     6.491000000    -1.046000000    -8.448000000
H     5.943000000    -2.215000000    -7.658000000
