215
-1473.65187
C    -5.070000000    -0.402000000    -2.015000000
H    -5.013000000     0.649000000    -2.283000000
C    -4.665000000    -0.930000000    -0.781000000
C    -4.639000000    -2.352000000    -0.599000000
H    -4.400000000    -2.823000000     0.351000000
C    -4.212000000    -0.060000000     0.342000000
O    -4.820000000     1.291000000     0.325000000
H    -3.122000000     0.082000000     0.384000000
O    -4.486000000    -0.660000000     1.614000000
C    -3.508000000    -0.587000000     2.596000000
C    -2.784000000    -1.747000000     2.837000000
H    -2.844000000    -2.678000000     2.279000000
C    -1.707000000    -1.663000000     3.683000000
O    -0.836000000    -2.737000000     3.750000000
C    -1.441000000    -0.522000000     4.451000000
C    -0.309000000    -0.526000000     5.485000000
H    -0.619000000     0.232000000     6.208000000
C     0.978000000    -0.087000000     4.758000000
C     1.234000000     1.249000000     4.573000000
H     0.515000000     1.981000000     4.931000000
H    -0.198000000    -1.405000000     6.123000000
C    -2.276000000     0.551000000     4.299000000
H    -2.098000000     1.446000000     4.890000000
C    -3.325000000     0.547000000     3.300000000
C    -4.140000000     1.777000000     3.083000000
H    -3.962000000     2.398000000     3.963000000
H    -5.224000000     1.653000000     3.029000000
C    -3.549000000     2.555000000     1.922000000
C    -2.660000000     3.562000000     2.159000000
H    -2.322000000     3.851000000     3.151000000
C    -3.947000000     2.266000000     0.609000000
C    -3.387000000     2.953000000    -0.459000000
H    -3.749000000     2.734000000    -1.460000000
C    -2.524000000     3.982000000    -0.215000000
O    -1.929000000     4.518000000    -1.316000000
C    -0.676000000     3.754000000    -1.562000000
C    -0.651000000     3.243000000    -2.988000000
C     0.549000000     2.734000000    -3.447000000
H     1.417000000     2.685000000    -2.796000000
C    -1.770000000     3.169000000    -3.799000000
H    -2.794000000     3.395000000    -3.513000000
O     0.468000000     4.506000000    -1.204000000
H    -0.651000000     2.909000000    -0.859000000
C    -2.064000000     4.263000000     1.097000000
C    -0.957000000     5.263000000     1.376000000
H    -0.984000000     5.722000000     2.366000000
H    -0.935000000     6.090000000     0.663000000
C     0.350000000     4.611000000     1.241000000
C     0.880000000     4.066000000     2.409000000
H     0.319000000     4.110000000     3.339000000
C     0.975000000     4.279000000     0.022000000
C     2.289000000     3.866000000     0.077000000
H     2.807000000     3.607000000    -0.843000000
C     2.919000000     3.539000000     1.256000000
O     4.128000000     2.858000000     1.188000000
C     4.121000000     1.378000000     1.296000000
C     5.002000000     0.696000000     0.290000000
C     5.278000000     1.369000000    -0.958000000
H     4.892000000     2.348000000    -1.229000000
C     5.506000000    -0.580000000     0.444000000
H     5.184000000    -1.092000000     1.347000000
O     4.493000000     1.046000000     2.673000000
H     3.077000000     1.070000000     1.138000000
C     2.167000000     3.554000000     2.419000000
C     2.720000000     3.119000000     3.743000000
H     2.282000000     3.639000000     4.598000000
H     3.793000000     3.317000000     3.774000000
C     2.469000000     1.661000000     4.028000000
C     3.363000000     0.715000000     3.476000000
C     3.045000000    -0.600000000     3.623000000
H     3.654000000    -1.370000000     3.155000000
C     1.829000000    -1.003000000     4.184000000
O     1.437000000    -2.308000000     3.997000000
C     0.336000000    -2.515000000     3.052000000
H     0.147000000    -1.638000000     2.415000000
C     0.612000000    -3.750000000     2.255000000
C    -0.422000000    -4.520000000     1.704000000
H    -1.436000000    -4.535000000     2.095000000
C     1.936000000    -4.001000000     1.792000000
H     2.816000000    -3.418000000     2.048000000
C     2.270000000    -5.122000000     1.074000000
O     3.509000000    -5.687000000     0.937000000
C     1.200000000    -6.000000000     0.690000000
H     1.365000000    -6.981000000     0.252000000
C    -0.095000000    -5.586000000     0.924000000
O    -1.029000000    -6.353000000     0.249000000
C    -2.381000000    -6.103000000     0.411000000
C    -2.990000000    -5.457000000    -0.650000000
H    -2.438000000    -4.948000000    -1.436000000
C    -3.088000000    -6.700000000     1.440000000
H    -2.552000000    -7.275000000     2.192000000
C    -4.490000000    -6.421000000     1.551000000
H    -5.051000000    -6.693000000     2.441000000
C    -5.172000000    -5.767000000     0.531000000
H    -6.226000000    -5.503000000     0.569000000
C    -4.385000000    -5.245000000    -0.513000000
O    -4.914000000    -4.554000000    -1.589000000
C    -5.068000000    -3.154000000    -1.644000000
C    -5.542000000    -2.579000000    -2.825000000
H    -5.930000000    -3.232000000    -3.603000000
C    -5.564000000    -1.176000000    -2.992000000
O    -5.986000000    -0.674000000    -4.209000000
C    -5.645000000     0.594000000    -4.653000000
C    -4.350000000     0.850000000    -5.142000000
H    -3.627000000     0.039000000    -5.154000000
C    -6.510000000     1.664000000    -4.409000000
H    -7.549000000     1.490000000    -4.144000000
C    -6.129000000     2.929000000    -4.740000000
H    -6.887000000     3.704000000    -4.662000000
C    -4.833000000     3.147000000    -5.246000000
H    -4.390000000     4.093000000    -5.547000000
C    -3.929000000     2.114000000    -5.515000000
O    -2.655000000     2.387000000    -5.972000000
C    -1.630000000     2.631000000    -5.118000000
C    -0.370000000     2.267000000    -5.634000000
H    -0.303000000     1.975000000    -6.679000000
C     0.699000000     2.244000000    -4.749000000
O     1.966000000     1.678000000    -5.126000000
C     3.190000000     2.257000000    -4.904000000
C     4.131000000     1.495000000    -4.201000000
H     3.846000000     0.540000000    -3.767000000
C     3.400000000     3.621000000    -5.234000000
H     2.666000000     4.288000000    -5.678000000
C     4.684000000     4.190000000    -4.970000000
H     4.911000000     5.227000000    -5.203000000
C     5.639000000     3.367000000    -4.317000000
H     6.570000000     3.870000000    -4.066000000
C     5.346000000     2.062000000    -3.887000000
O     6.280000000     1.359000000    -3.192000000
C     5.991000000     0.703000000    -1.984000000
C     6.603000000    -0.523000000    -1.725000000
H     7.223000000    -0.964000000    -2.501000000
C     6.299000000    -1.158000000    -0.509000000
O     6.944000000    -2.364000000    -0.239000000
C     6.376000000    -3.284000000     0.693000000
C     7.065000000    -3.569000000     1.858000000
H     8.004000000    -3.082000000     2.111000000
C     6.590000000    -4.592000000     2.732000000
H     7.231000000    -4.668000000     3.607000000
C     5.375000000    -5.246000000     2.433000000
H     4.912000000    -5.879000000     3.185000000
C     4.723000000    -4.988000000     1.232000000
C     5.179000000    -3.954000000     0.400000000
H     4.641000000    -3.610000000    -0.479000000
C     0.535000000    -2.575000000    -1.217000000
H     0.276000000    -3.623000000    -1.343000000
C    -0.181000000    -1.745000000    -0.393000000
H    -1.102000000    -2.203000000    -0.042000000
C     0.193000000    -0.462000000    -0.073000000
H    -0.519000000     0.192000000     0.503000000
C     1.362000000    -0.023000000    -0.597000000
H     1.631000000     0.988000000    -0.301000000
C     2.179000000    -0.844000000    -1.397000000
H     3.150000000    -0.438000000    -1.667000000
C     1.755000000    -2.135000000    -1.767000000
C     2.623000000    -3.037000000    -2.707000000
O     3.726000000    -2.675000000    -3.020000000
O     2.124000000    -4.067000000    -3.207000000
O    -2.073000000    -4.207000000    -4.197000000
H    -1.904000000    -3.381000000    -3.743000000
H    -1.319000000    -4.756000000    -3.983000000
O    -0.506000000    -6.759000000    -3.214000000
H    -0.697000000    -7.690000000    -3.097000000
H    -0.197000000    -6.468000000    -2.356000000
O     4.152000000    -4.688000000    -7.644000000
H     3.503000000    -5.103000000    -8.212000000
H     3.825000000    -4.837000000    -6.757000000
O     3.269000000    -9.506000000    -1.841000000
H     4.011000000    -9.330000000    -1.262000000
H     2.977000000    -8.640000000    -2.126000000
O     5.174000000    -6.728000000    -1.731000000
H     5.394000000    -6.064000000    -2.384000000
H     5.958000000    -6.796000000    -1.185000000
O     2.424000000    -6.472000000    -2.210000000
H     2.313000000    -5.646000000    -2.681000000
H     3.312000000    -6.427000000    -1.855000000
O     2.680000000    -1.567000000    -6.392000000
H     2.455000000    -1.659000000    -7.318000000
H     1.860000000    -1.742000000    -5.928000000
O     7.000000000     0.371000000    -6.156000000
H     6.139000000     0.236000000    -5.760000000
H     7.612000000    -0.044000000    -5.547000000
O     5.463000000    -4.687000000    -3.278000000
H     4.999000000    -5.090000000    -4.012000000
H     4.994000000    -3.868000000    -3.119000000
O    -1.990000000    -1.970000000    -6.606000000
H    -1.365000000    -2.076000000    -5.889000000
H    -1.460000000    -1.669000000    -7.344000000
O     0.815000000    -4.227000000    -6.842000000
H     0.733000000    -5.067000000    -6.390000000
H     0.607000000    -3.574000000    -6.174000000
O     3.462000000    -5.664000000    -4.952000000
H     2.624000000    -6.076000000    -5.163000000
H     3.247000000    -5.014000000    -4.283000000
O     5.045000000    -1.685000000    -4.952000000
H     4.876000000    -2.203000000    -4.165000000
H     4.193000000    -1.619000000    -5.383000000
O    -1.740000000    -1.387000000    -2.924000000
H    -1.289000000    -0.860000000    -2.264000000
H    -2.589000000    -0.959000000    -3.034000000
O     0.313000000    -2.655000000    -4.847000000
H    -0.243000000    -2.147000000    -4.256000000
H     0.787000000    -3.256000000    -4.272000000
O     5.182000000    -7.577000000    -5.582000000
H     4.733000000    -8.346000000    -5.230000000
H     4.563000000    -6.859000000    -5.452000000
O     0.835000000    -6.568000000    -5.452000000
H     0.247000000    -6.961000000    -6.097000000
H     0.353000000    -6.620000000    -4.626000000
O     7.826000000    -3.697000000    -2.490000000
H     7.028000000    -4.147000000    -2.768000000
H     7.531000000    -3.079000000    -1.821000000
O     5.403000000    -2.033000000    -8.264000000
H     5.515000000    -1.608000000    -7.414000000
H     4.899000000    -2.824000000    -8.071000000
