215
-1464.53538
C    -3.299000000    -1.964000000    -3.561000000
H    -3.306000000    -0.934000000    -3.909000000
C    -3.724000000    -2.211000000    -2.192000000
C    -3.755000000    -3.478000000    -1.686000000
H    -4.051000000    -3.608000000    -0.648000000
C    -4.014000000    -1.068000000    -1.210000000
O    -4.697000000     0.025000000    -1.834000000
H    -3.001000000    -0.764000000    -0.908000000
O    -4.751000000    -1.424000000    -0.045000000
C    -4.369000000    -1.011000000     1.192000000
C    -3.670000000    -1.908000000     2.015000000
H    -3.396000000    -2.908000000     1.690000000
C    -3.188000000    -1.492000000     3.254000000
O    -2.374000000    -2.361000000     3.950000000
C    -3.429000000    -0.163000000     3.643000000
C    -2.760000000     0.343000000     4.876000000
H    -3.352000000     1.184000000     5.245000000
C    -1.407000000     0.892000000     4.611000000
C    -1.169000000     2.236000000     4.208000000
H    -1.988000000     2.951000000     4.191000000
H    -2.638000000    -0.403000000     5.663000000
C    -4.095000000     0.781000000     2.835000000
H    -4.253000000     1.800000000     3.181000000
C    -4.510000000     0.343000000     1.581000000
C    -5.217000000     1.343000000     0.698000000
H    -5.582000000     2.192000000     1.278000000
H    -6.013000000     0.870000000     0.120000000
C    -4.254000000     1.875000000    -0.354000000
C    -3.681000000     3.112000000    -0.089000000
H    -3.824000000     3.609000000     0.868000000
C    -4.034000000     1.254000000    -1.557000000
C    -3.158000000     1.799000000    -2.532000000
H    -2.840000000     1.218000000    -3.394000000
C    -2.662000000     3.108000000    -2.330000000
O    -1.729000000     3.578000000    -3.205000000
C    -0.418000000     3.311000000    -2.801000000
C     0.506000000     2.860000000    -3.943000000
C     1.919000000     2.995000000    -3.862000000
H     2.357000000     3.569000000    -3.049000000
C    -0.112000000     2.254000000    -5.023000000
H    -1.194000000     2.220000000    -5.117000000
O     0.152000000     4.481000000    -2.205000000
H    -0.426000000     2.533000000    -2.024000000
C    -2.905000000     3.682000000    -1.091000000
C    -2.286000000     5.065000000    -0.820000000
H    -2.961000000     5.581000000    -0.134000000
H    -2.188000000     5.572000000    -1.783000000
C    -0.949000000     4.934000000    -0.101000000
C    -0.867000000     4.870000000     1.322000000
H    -1.717000000     5.146000000     1.940000000
C     0.190000000     4.567000000    -0.840000000
C     1.309000000     4.144000000    -0.141000000
H     2.146000000     3.780000000    -0.730000000
C     1.366000000     4.091000000     1.223000000
O     2.574000000     3.709000000     1.744000000
C     2.694000000     2.301000000     2.116000000
C     4.076000000     1.794000000     1.777000000
C     4.794000000     2.208000000     0.633000000
H     4.417000000     2.959000000    -0.056000000
C     4.516000000     0.726000000     2.528000000
H     3.971000000     0.396000000     3.409000000
O     2.412000000     2.141000000     3.568000000
H     1.944000000     1.678000000     1.607000000
C     0.278000000     4.461000000     2.028000000
C     0.302000000     4.245000000     3.558000000
H    -0.560000000     4.835000000     3.878000000
H     1.258000000     4.638000000     3.908000000
C     0.090000000     2.774000000     3.889000000
C     1.129000000     1.831000000     3.953000000
C     0.943000000     0.515000000     4.331000000
H     1.847000000    -0.073000000     4.466000000
C    -0.307000000     0.027000000     4.679000000
O    -0.526000000    -1.294000000     4.993000000
C    -0.949000000    -2.047000000     3.846000000
H    -0.724000000    -1.383000000     2.999000000
C    -0.128000000    -3.386000000     3.603000000
C    -0.730000000    -4.536000000     3.011000000
H    -1.796000000    -4.558000000     2.796000000
C     1.256000000    -3.334000000     3.744000000
H     1.732000000    -2.449000000     4.160000000
C     2.077000000    -4.374000000     3.287000000
O     3.460000000    -4.353000000     3.337000000
C     1.483000000    -5.472000000     2.652000000
H     2.134000000    -6.224000000     2.213000000
C     0.093000000    -5.580000000     2.586000000
O    -0.456000000    -6.705000000     1.919000000
C    -1.755000000    -6.629000000     1.360000000
C    -1.887000000    -6.233000000     0.042000000
H    -1.043000000    -6.241000000    -0.643000000
C    -2.949000000    -6.736000000     2.173000000
H    -2.985000000    -6.854000000     3.253000000
C    -4.186000000    -6.509000000     1.554000000
H    -5.117000000    -6.508000000     2.115000000
C    -4.309000000    -6.231000000     0.224000000
H    -5.232000000    -6.110000000    -0.337000000
C    -3.160000000    -6.075000000    -0.534000000
O    -3.351000000    -5.797000000    -1.881000000
C    -3.547000000    -4.560000000    -2.516000000
C    -3.170000000    -4.293000000    -3.803000000
H    -2.910000000    -5.145000000    -4.425000000
C    -2.980000000    -3.032000000    -4.356000000
O    -2.483000000    -2.925000000    -5.654000000
C    -2.368000000    -1.703000000    -6.257000000
C    -1.184000000    -1.031000000    -6.266000000
H    -0.334000000    -1.482000000    -5.759000000
C    -3.396000000    -1.188000000    -6.967000000
H    -4.342000000    -1.720000000    -6.913000000
C    -3.253000000    -0.014000000    -7.745000000
H    -4.082000000     0.394000000    -8.318000000
C    -2.047000000     0.666000000    -7.727000000
H    -1.882000000     1.597000000    -8.264000000
C    -1.034000000     0.203000000    -6.933000000
O     0.172000000     0.879000000    -6.982000000
C     0.711000000     1.500000000    -5.893000000
C     2.090000000     1.601000000    -5.747000000
H     2.741000000     1.072000000    -6.439000000
C     2.710000000     2.325000000    -4.750000000
O     4.082000000     2.484000000    -4.916000000
C     4.981000000     2.939000000    -3.954000000
C     5.389000000     2.105000000    -2.882000000
H     5.009000000     1.092000000    -2.775000000
C     5.593000000     4.175000000    -4.151000000
H     5.446000000     4.633000000    -5.126000000
C     6.556000000     4.562000000    -3.211000000
H     7.217000000     5.390000000    -3.452000000
C     6.833000000     3.858000000    -2.079000000
H     7.633000000     4.305000000    -1.495000000
C     6.300000000     2.559000000    -1.909000000
O     6.655000000     1.776000000    -0.852000000
C     6.039000000     1.638000000     0.341000000
C     6.569000000     0.728000000     1.233000000
H     7.595000000     0.442000000     1.015000000
C     5.797000000     0.232000000     2.305000000
O     6.388000000    -0.612000000     3.320000000
C     5.665000000    -1.602000000     3.990000000
C     5.787000000    -1.642000000     5.354000000
H     6.467000000    -0.982000000     5.886000000
C     5.022000000    -2.569000000     6.091000000
H     5.153000000    -2.661000000     7.166000000
C     4.141000000    -3.449000000     5.430000000
H     3.485000000    -4.167000000     5.916000000
C     4.144000000    -3.460000000     4.019000000
C     4.857000000    -2.478000000     3.274000000
H     4.738000000    -2.392000000     2.197000000
C     2.661000000    -0.837000000    -1.141000000
H     3.664000000    -1.173000000    -0.895000000
C     1.802000000    -0.398000000    -0.186000000
H     2.087000000    -0.342000000     0.862000000
C     0.555000000     0.078000000    -0.571000000
H    -0.116000000     0.408000000     0.179000000
C     0.214000000     0.093000000    -1.921000000
H    -0.702000000     0.578000000    -2.247000000
C     1.108000000    -0.380000000    -2.904000000
H     0.768000000    -0.370000000    -3.937000000
C     2.273000000    -1.036000000    -2.498000000
C     3.237000000    -1.675000000    -3.476000000
O     2.903000000    -2.245000000    -4.455000000
O     4.380000000    -1.886000000    -3.113000000
O    -0.161000000    -4.325000000    -6.589000000
H    -1.002000000    -3.912000000    -6.390000000
H    -0.393000000    -5.118000000    -7.072000000
O     3.983000000    -1.908000000    -8.547000000
H     3.364000000    -2.184000000    -7.871000000
H     4.117000000    -0.975000000    -8.381000000
O     1.933000000    -2.767000000    -6.782000000
H     2.379000000    -2.647000000    -5.944000000
H     1.200000000    -3.350000000    -6.581000000
O     6.533000000    -1.130000000    -1.691000000
H     5.707000000    -1.522000000    -1.977000000
H     6.304000000    -0.229000000    -1.464000000
O     4.886000000     0.774000000    -7.749000000
H     5.633000000     1.367000000    -7.828000000
H     4.921000000     0.464000000    -6.844000000
O     1.319000000    -4.364000000    -3.564000000
H     1.711000000    -4.869000000    -4.276000000
H     1.511000000    -3.452000000    -3.783000000
O     4.898000000    -7.150000000    -0.666000000
H     5.569000000    -7.637000000    -1.144000000
H     4.714000000    -6.391000000    -1.219000000
O     4.660000000    -4.594000000    -4.458000000
H     3.948000000    -5.151000000    -4.773000000
H     4.226000000    -3.789000000    -4.175000000
O     8.988000000    -1.850000000    -0.570000000
H     8.161000000    -1.664000000    -1.014000000
H     9.436000000    -2.469000000    -1.146000000
O     7.599000000    -2.785000000    -3.952000000
H     7.116000000    -2.321000000    -3.268000000
H     8.158000000    -2.115000000    -4.347000000
O     8.675000000    -5.102000000    -3.182000000
H     8.135000000    -4.427000000    -3.593000000
H     9.148000000    -4.642000000    -2.489000000
O     4.318000000    -3.728000000    -0.236000000
H     3.430000000    -4.085000000    -0.233000000
H     4.505000000    -3.561000000    -1.160000000
O     5.492000000    -0.723000000    -5.671000000
H     6.141000000    -0.692000000    -4.968000000
H     4.707000000    -1.081000000    -5.257000000
O     2.612000000    -6.573000000    -5.064000000
H     1.884000000    -6.664000000    -5.679000000
H     3.241000000    -7.240000000    -5.339000000
O     0.171000000    -2.488000000    -8.970000000
H    -0.013000000    -3.427000000    -8.977000000
H     0.777000000    -2.368000000    -8.239000000
O     7.085000000    -4.407000000    -6.236000000
H     6.433000000    -4.115000000    -5.599000000
H     7.539000000    -3.607000000    -6.499000000
O     1.928000000    -4.884000000    -0.933000000
H     1.114000000    -4.643000000    -0.490000000
H     1.767000000    -4.682000000    -1.855000000
O    -0.610000000    -6.440000000    -3.138000000
H     0.293000000    -6.683000000    -3.343000000
H    -0.625000000    -5.486000000    -3.218000000
O     6.270000000    -6.495000000    -3.003000000
H     7.175000000    -6.194000000    -2.924000000
H     5.923000000    -6.015000000    -3.756000000
