215
-1453.20229
C    -3.972000000    -1.104000000    -3.072000000
H    -4.201000000    -0.051000000    -3.218000000
C    -3.801000000    -1.555000000    -1.794000000
C    -3.464000000    -2.892000000    -1.563000000
H    -3.144000000    -3.249000000    -0.587000000
C    -4.013000000    -0.597000000    -0.611000000
O    -4.605000000     0.678000000    -1.015000000
H    -3.026000000    -0.400000000    -0.169000000
O    -4.758000000    -1.251000000     0.438000000
C    -4.218000000    -1.070000000     1.685000000
C    -3.320000000    -2.080000000     2.200000000
H    -3.205000000    -3.005000000     1.641000000
C    -2.651000000    -1.892000000     3.359000000
O    -1.822000000    -2.876000000     3.767000000
C    -2.681000000    -0.666000000     3.993000000
C    -1.886000000    -0.565000000     5.238000000
H    -2.268000000     0.214000000     5.901000000
C    -0.492000000    -0.063000000     4.757000000
C    -0.263000000     1.283000000     4.607000000
H    -1.003000000     2.013000000     4.926000000
H    -1.799000000    -1.526000000     5.750000000
C    -3.410000000     0.408000000     3.451000000
H    -3.385000000     1.347000000     3.999000000
C    -4.232000000     0.179000000     2.377000000
C    -5.057000000     1.352000000     1.781000000
H    -5.446000000     1.978000000     2.587000000
H    -5.961000000     1.034000000     1.257000000
C    -4.272000000     2.216000000     0.783000000
C    -3.731000000     3.408000000     1.167000000
H    -3.790000000     3.694000000     2.214000000
C    -4.100000000     1.801000000    -0.508000000
C    -3.340000000     2.596000000    -1.374000000
H    -3.274000000     2.348000000    -2.430000000
C    -2.808000000     3.813000000    -0.997000000
O    -1.943000000     4.454000000    -1.907000000
C    -0.565000000     4.093000000    -1.863000000
C     0.056000000     3.746000000    -3.191000000
C     1.438000000     4.012000000    -3.350000000
H     2.019000000     4.507000000    -2.576000000
C    -0.607000000     2.980000000    -4.111000000
H    -1.679000000     2.872000000    -3.970000000
O     0.028000000     5.195000000    -1.133000000
H    -0.448000000     3.218000000    -1.207000000
C    -2.948000000     4.229000000     0.321000000
C    -2.114000000     5.433000000     0.784000000
H    -2.591000000     5.846000000     1.675000000
H    -2.076000000     6.280000000     0.095000000
C    -0.722000000     5.030000000     1.141000000
C    -0.471000000     4.533000000     2.415000000
H    -1.329000000     4.589000000     3.081000000
C     0.301000000     4.959000000     0.213000000
C     1.560000000     4.450000000     0.509000000
H     2.295000000     4.348000000    -0.285000000
C     1.817000000     3.938000000     1.818000000
O     3.022000000     3.236000000     1.981000000
C     3.164000000     1.820000000     2.044000000
C     4.323000000     1.242000000     1.244000000
C     4.869000000     1.861000000     0.116000000
H     4.429000000     2.798000000    -0.214000000
C     4.809000000    -0.010000000     1.581000000
H     4.530000000    -0.589000000     2.457000000
O     3.181000000     1.348000000     3.436000000
H     2.263000000     1.513000000     1.492000000
C     0.787000000     4.004000000     2.755000000
C     0.967000000     3.375000000     4.167000000
H     0.167000000     3.793000000     4.783000000
H     1.904000000     3.680000000     4.638000000
C     0.952000000     1.817000000     4.264000000
C     2.027000000     0.929000000     4.038000000
C     1.775000000    -0.453000000     4.070000000
H     2.571000000    -1.148000000     3.812000000
C     0.510000000    -0.970000000     4.417000000
O     0.322000000    -2.333000000     4.409000000
C    -0.434000000    -2.829000000     3.340000000
H    -0.378000000    -2.029000000     2.588000000
C     0.125000000    -4.154000000     2.886000000
C    -0.668000000    -5.128000000     2.274000000
H    -1.718000000    -4.905000000     2.101000000
C     1.502000000    -4.355000000     2.820000000
H     2.123000000    -3.518000000     3.130000000
C     2.088000000    -5.453000000     2.212000000
O     3.404000000    -5.531000000     2.027000000
C     1.263000000    -6.420000000     1.734000000
H     1.708000000    -7.343000000     1.373000000
C    -0.105000000    -6.332000000     1.768000000
O    -0.986000000    -7.322000000     1.327000000
C    -2.051000000    -6.990000000     0.537000000
C    -1.919000000    -6.182000000    -0.673000000
H    -0.893000000    -6.127000000    -1.029000000
C    -3.299000000    -7.450000000     0.900000000
H    -3.354000000    -7.973000000     1.852000000
C    -4.432000000    -7.074000000     0.245000000
H    -5.395000000    -7.476000000     0.547000000
C    -4.358000000    -6.232000000    -0.857000000
H    -5.258000000    -5.876000000    -1.351000000
C    -3.065000000    -5.763000000    -1.336000000
O    -2.914000000    -5.098000000    -2.515000000
C    -3.355000000    -3.799000000    -2.654000000
C    -3.469000000    -3.298000000    -3.937000000
H    -3.252000000    -3.954000000    -4.776000000
C    -3.819000000    -1.938000000    -4.131000000
O    -3.987000000    -1.432000000    -5.388000000
C    -3.646000000    -0.159000000    -5.787000000
C    -2.356000000     0.279000000    -5.530000000
H    -1.730000000    -0.313000000    -4.867000000
C    -4.371000000     0.336000000    -6.856000000
H    -5.257000000    -0.206000000    -7.178000000
C    -3.989000000     1.456000000    -7.560000000
H    -4.654000000     1.920000000    -8.284000000
C    -2.811000000     1.980000000    -7.238000000
H    -2.349000000     2.742000000    -7.860000000
C    -1.947000000     1.410000000    -6.254000000
O    -0.672000000     1.868000000    -6.261000000
C     0.014000000     2.547000000    -5.260000000
C     1.322000000     2.832000000    -5.491000000
H     1.738000000     2.525000000    -6.447000000
C     2.046000000     3.598000000    -4.563000000
O     3.404000000     3.740000000    -4.798000000
C     4.426000000     3.928000000    -3.886000000
C     4.933000000     2.823000000    -3.311000000
H     4.618000000     1.832000000    -3.629000000
C     4.823000000     5.240000000    -3.526000000
H     4.173000000     6.076000000    -3.771000000
C     5.842000000     5.345000000    -2.544000000
H     6.025000000     6.376000000    -2.250000000
C     6.318000000     4.234000000    -1.910000000
H     7.058000000     4.280000000    -1.114000000
C     5.949000000     2.964000000    -2.378000000
O     6.482000000     1.905000000    -1.716000000
C     5.873000000     1.235000000    -0.627000000
C     6.328000000     0.024000000    -0.281000000
H     7.172000000    -0.399000000    -0.819000000
C     5.806000000    -0.682000000     0.832000000
O     6.317000000    -1.934000000     1.130000000
C     5.775000000    -2.780000000     1.992000000
C     6.440000000    -2.976000000     3.195000000
H     7.257000000    -2.307000000     3.452000000
C     6.105000000    -3.999000000     4.006000000
H     6.548000000    -4.124000000     4.991000000
C     5.014000000    -4.810000000     3.702000000
H     4.638000000    -5.593000000     4.355000000
C     4.302000000    -4.595000000     2.461000000
C     4.674000000    -3.525000000     1.626000000
H     4.108000000    -3.262000000     0.735000000
C     2.098000000    -1.339000000    -0.686000000
H     2.879000000    -2.081000000    -0.544000000
C     1.200000000    -1.032000000     0.336000000
H     1.219000000    -1.537000000     1.299000000
C     0.188000000    -0.083000000     0.102000000
H    -0.440000000     0.095000000     0.930000000
C     0.075000000     0.572000000    -1.065000000
H    -0.743000000     1.288000000    -1.089000000
C     0.933000000     0.292000000    -2.157000000
H     0.783000000     0.795000000    -3.109000000
C     2.029000000    -0.593000000    -1.901000000
C     3.041000000    -0.933000000    -2.995000000
O     2.869000000    -0.543000000    -4.127000000
O     4.106000000    -1.536000000    -2.743000000
O     2.878000000    -7.596000000    -3.139000000
H     3.326000000    -7.603000000    -2.293000000
H     2.698000000    -6.671000000    -3.308000000
O     4.026000000    -5.979000000    -5.542000000
H     3.261000000    -5.410000000    -5.620000000
H     4.544000000    -5.589000000    -4.838000000
O     5.760000000    -4.191000000    -4.138000000
H     5.181000000    -3.571000000    -4.582000000
H     6.005000000    -3.750000000    -3.325000000
O    -1.313000000    -1.731000000    -7.645000000
H    -1.802000000    -2.553000000    -7.600000000
H    -1.226000000    -1.455000000    -6.733000000
O     0.130000000    -3.155000000    -2.812000000
H     0.899000000    -3.709000000    -2.677000000
H    -0.219000000    -3.012000000    -1.933000000
O     6.349000000     0.538000000    -6.346000000
H     5.464000000     0.834000000    -6.135000000
H     6.706000000     0.236000000    -5.510000000
O     0.818000000    -1.867000000    -5.195000000
H     0.419000000    -2.136000000    -4.368000000
H     1.591000000    -1.365000000    -4.935000000
O     1.823000000    -1.138000000    -7.631000000
H     1.150000000    -1.695000000    -7.240000000
H     2.409000000    -1.748000000    -8.079000000
O     5.696000000    -3.195000000    -1.475000000
H     5.021000000    -2.703000000    -1.944000000
H     5.919000000    -2.641000000    -0.727000000
O     4.251000000    -2.379000000    -5.892000000
H     4.133000000    -1.575000000    -5.386000000
H     3.390000000    -2.551000000    -6.272000000
O     9.066000000    -1.385000000    -3.253000000
H     8.227000000    -0.926000000    -3.199000000
H     9.550000000    -1.090000000    -2.482000000
O     6.533000000    -0.446000000    -3.523000000
H     5.883000000    -1.099000000    -3.264000000
H     6.216000000     0.372000000    -3.140000000
O     3.514000000     0.623000000    -6.223000000
H     2.927000000     0.169000000    -6.828000000
H     3.181000000     0.401000000    -5.354000000
O     1.629000000    -4.911000000    -5.096000000
H     0.973000000    -4.214000000    -5.097000000
H     2.079000000    -4.815000000    -4.257000000
O     4.794000000    -1.085000000    -9.607000000
H     4.107000000    -1.009000000   -10.269000000
H     4.435000000    -1.690000000    -8.958000000
O     3.895000000     2.746000000    -8.097000000
H     4.740000000     2.742000000    -8.547000000
H     4.053000000     2.261000000    -7.287000000
O     2.856000000    -4.452000000    -2.748000000
H     3.508000000    -3.758000000    -2.844000000
H     3.162000000    -4.967000000    -2.001000000
O     4.216000000    -6.094000000    -0.687000000
H     4.132000000    -6.327000000     0.238000000
H     5.131000000    -5.831000000    -0.785000000
O     7.245000000    -2.935000000    -6.704000000
H     6.470000000    -2.955000000    -6.143000000
H     7.005000000    -2.352000000    -7.424000000
