215
-1427.52798
C    -3.678000000    -1.996000000    -3.037000000
H    -3.647000000    -0.984000000    -3.432000000
C    -3.927000000    -2.162000000    -1.686000000
C    -3.772000000    -3.430000000    -1.101000000
H    -3.774000000    -3.623000000    -0.032000000
C    -4.080000000    -1.011000000    -0.776000000
O    -4.736000000     0.057000000    -1.438000000
H    -3.031000000    -0.749000000    -0.573000000
O    -4.699000000    -1.395000000     0.447000000
C    -4.358000000    -0.848000000     1.683000000
C    -3.602000000    -1.663000000     2.520000000
H    -3.397000000    -2.713000000     2.326000000
C    -2.944000000    -1.113000000     3.612000000
O    -2.050000000    -1.934000000     4.238000000
C    -3.046000000     0.280000000     3.939000000
C    -2.224000000     0.863000000     5.122000000
H    -2.656000000     1.839000000     5.353000000
C    -0.806000000     1.166000000     4.718000000
C    -0.591000000     2.551000000     4.308000000
H    -1.273000000     3.396000000     4.273000000
H    -2.250000000     0.147000000     5.945000000
C    -3.834000000     1.016000000     3.062000000
H    -4.113000000     2.006000000     3.414000000
C    -4.527000000     0.480000000     2.003000000
C    -5.357000000     1.345000000     1.055000000
H    -5.793000000     2.123000000     1.684000000
H    -6.171000000     0.783000000     0.592000000
C    -4.453000000     1.946000000     0.040000000
C    -3.775000000     3.172000000     0.287000000
H    -4.012000000     3.690000000     1.212000000
C    -4.261000000     1.350000000    -1.207000000
C    -3.379000000     1.887000000    -2.126000000
H    -3.266000000     1.429000000    -3.106000000
C    -2.770000000     3.116000000    -1.892000000
O    -1.907000000     3.486000000    -2.910000000
C    -0.527000000     3.306000000    -2.644000000
C     0.285000000     2.896000000    -3.836000000
C     1.632000000     3.255000000    -4.014000000
H     1.992000000     4.039000000    -3.352000000
C    -0.241000000     1.891000000    -4.678000000
H    -1.236000000     1.591000000    -4.358000000
O     0.059000000     4.580000000    -2.282000000
H    -0.344000000     2.602000000    -1.819000000
C    -2.971000000     3.789000000    -0.686000000
C    -2.262000000     5.126000000    -0.441000000
H    -2.832000000     5.774000000     0.228000000
H    -2.324000000     5.607000000    -1.420000000
C    -0.806000000     4.912000000    -0.026000000
C    -0.656000000     4.772000000     1.386000000
H    -1.475000000     4.918000000     2.085000000
C     0.277000000     4.759000000    -0.934000000
C     1.494000000     4.506000000    -0.457000000
H     2.342000000     4.246000000    -1.085000000
C     1.682000000     4.335000000     0.942000000
O     2.878000000     3.820000000     1.361000000
C     2.941000000     2.393000000     1.745000000
C     4.223000000     1.707000000     1.192000000
C     4.805000000     2.154000000     0.037000000
H     4.463000000     3.045000000    -0.483000000
C     4.705000000     0.489000000     1.791000000
H     4.258000000     0.075000000     2.691000000
O     2.900000000     2.257000000     3.221000000
H     2.061000000     1.923000000     1.281000000
C     0.638000000     4.505000000     1.837000000
C     0.892000000     4.398000000     3.347000000
H     0.266000000     5.011000000     3.999000000
H     1.911000000     4.745000000     3.535000000
C     0.700000000     2.908000000     3.847000000
C     1.689000000     1.956000000     3.774000000
C     1.550000000     0.663000000     4.295000000
H     2.330000000    -0.085000000     4.178000000
C     0.269000000     0.299000000     4.724000000
O     0.013000000    -1.021000000     4.927000000
C    -0.632000000    -1.903000000     3.946000000
H    -0.622000000    -1.458000000     2.940000000
C    -0.023000000    -3.338000000     3.832000000
C    -0.845000000    -4.403000000     3.350000000
H    -1.925000000    -4.280000000     3.340000000
C     1.343000000    -3.463000000     3.659000000
H     1.957000000    -2.567000000     3.598000000
C     1.974000000    -4.689000000     3.283000000
O     3.361000000    -4.792000000     3.083000000
C     1.118000000    -5.799000000     3.196000000
H     1.581000000    -6.745000000     2.929000000
C    -0.276000000    -5.625000000     3.130000000
O    -1.074000000    -6.731000000     2.898000000
C    -2.169000000    -6.664000000     2.114000000
C    -2.013000000    -6.404000000     0.780000000
H    -1.000000000    -6.274000000     0.408000000
C    -3.467000000    -6.836000000     2.606000000
H    -3.563000000    -6.983000000     3.679000000
C    -4.542000000    -6.680000000     1.789000000
H    -5.536000000    -6.851000000     2.196000000
C    -4.409000000    -6.305000000     0.427000000
H    -5.250000000    -5.965000000    -0.173000000
C    -3.125000000    -6.201000000    -0.076000000
O    -2.944000000    -5.733000000    -1.329000000
C    -3.362000000    -4.527000000    -1.847000000
C    -3.111000000    -4.384000000    -3.199000000
H    -2.881000000    -5.243000000    -3.824000000
C    -3.270000000    -3.130000000    -3.800000000
O    -3.053000000    -3.080000000    -5.175000000
C    -2.816000000    -1.892000000    -5.881000000
C    -1.618000000    -1.167000000    -5.719000000
H    -0.951000000    -1.385000000    -4.889000000
C    -3.528000000    -1.659000000    -7.054000000
H    -4.398000000    -2.256000000    -7.317000000
C    -3.127000000    -0.662000000    -8.011000000
H    -3.754000000    -0.332000000    -8.835000000
C    -2.000000000     0.054000000    -7.745000000
H    -1.592000000     0.773000000    -8.451000000
C    -1.167000000    -0.221000000    -6.666000000
O     0.131000000     0.272000000    -6.613000000
C     0.562000000     1.240000000    -5.690000000
C     1.862000000     1.628000000    -5.844000000
H     2.471000000     1.171000000    -6.619000000
C     2.409000000     2.611000000    -4.992000000
O     3.627000000     3.069000000    -5.358000000
C     4.590000000     3.308000000    -4.415000000
C     5.071000000     2.315000000    -3.547000000
H     4.704000000     1.299000000    -3.669000000
C     5.063000000     4.634000000    -4.390000000
H     4.797000000     5.451000000    -5.057000000
C     6.109000000     4.906000000    -3.570000000
H     6.446000000     5.940000000    -3.575000000
C     6.544000000     3.987000000    -2.607000000
H     7.310000000     4.351000000    -1.926000000
C     6.008000000     2.705000000    -2.606000000
O     6.426000000     1.801000000    -1.739000000
C     5.871000000     1.419000000    -0.500000000
C     6.429000000     0.337000000     0.154000000
H     7.229000000    -0.232000000    -0.311000000
C     5.777000000    -0.235000000     1.245000000
O     6.327000000    -1.318000000     1.831000000
C     5.797000000    -2.085000000     2.818000000
C     5.947000000    -1.688000000     4.140000000
H     6.610000000    -0.848000000     4.331000000
C     5.317000000    -2.473000000     5.127000000
H     5.300000000    -2.110000000     6.151000000
C     4.600000000    -3.660000000     4.784000000
H     4.124000000    -4.343000000     5.484000000
C     4.355000000    -3.897000000     3.471000000
C     4.901000000    -3.142000000     2.462000000
H     4.598000000    -3.299000000     1.429000000
C     2.825000000    -2.152000000    -1.228000000
H     3.213000000    -3.149000000    -1.036000000
C     2.024000000    -1.545000000    -0.269000000
H     1.846000000    -2.027000000     0.689000000
C     1.363000000    -0.375000000    -0.600000000
H     0.651000000     0.034000000     0.167000000
C     1.501000000     0.249000000    -1.802000000
H     0.819000000     1.080000000    -1.960000000
C     2.262000000    -0.402000000    -2.804000000
H     2.222000000    -0.085000000    -3.843000000
C     2.972000000    -1.581000000    -2.514000000
C     3.788000000    -2.212000000    -3.615000000
O     3.834000000    -1.681000000    -4.732000000
O     4.485000000    -3.116000000    -3.258000000
O     0.912000000    -3.913000000    -4.061000000
H     1.762000000    -4.026000000    -4.488000000
H     0.326000000    -4.502000000    -4.537000000
O     4.936000000    -2.108000000    -8.182000000
H     4.009000000    -2.318000000    -8.289000000
H     4.946000000    -1.376000000    -7.564000000
O     2.310000000    -1.946000000    -6.820000000
H     2.968000000    -2.004000000    -6.128000000
H     1.515000000    -1.659000000    -6.372000000
O     6.974000000    -2.371000000    -3.137000000
H     6.036000000    -2.554000000    -3.191000000
H     7.058000000    -1.463000000    -3.429000000
O     3.953000000     0.787000000    -9.099000000
H     3.986000000     0.403000000    -8.223000000
H     3.052000000     0.646000000    -9.389000000
O     3.340000000    -5.083000000    -4.672000000
H     3.426000000    -4.923000000    -5.611000000
H     3.858000000    -4.390000000    -4.262000000
O     5.931000000    -3.764000000    -5.753000000
H     5.825000000    -3.450000000    -6.651000000
H     5.648000000    -3.030000000    -5.208000000
O     9.199000000    -1.902000000    -1.558000000
H     8.412000000    -2.190000000    -2.022000000
H     9.541000000    -2.698000000    -1.151000000
O     9.491000000    -3.135000000    -4.899000000
H     8.738000000    -2.859000000    -4.377000000
H     9.497000000    -2.537000000    -5.646000000
O     5.232000000    -5.152000000    -1.883000000
H     4.437000000    -5.682000000    -1.825000000
H     5.000000000    -4.437000000    -2.476000000
O     4.835000000     0.017000000    -6.363000000
H     5.792000000    -0.016000000    -6.340000000
H     4.559000000    -0.558000000    -5.650000000
O     3.539000000    -5.012000000    -7.534000000
H     2.733000000    -5.530000000    -7.538000000
H     3.877000000    -5.088000000    -8.426000000
O     7.660000000    -0.259000000    -5.703000000
H     8.206000000     0.210000000    -6.334000000
H     8.051000000    -0.059000000    -4.852000000
O     0.309000000    -2.676000000    -8.668000000
H    -0.277000000    -3.330000000    -8.287000000
H     0.943000000    -2.490000000    -7.974000000
O     8.372000000    -2.297000000    -7.694000000
H     7.808000000    -1.957000000    -6.999000000
H     9.259000000    -2.070000000    -7.415000000
O     6.858000000    -3.582000000    -0.225000000
H     7.497000000    -3.955000000    -0.832000000
H     6.010000000    -3.754000000    -0.635000000
O     2.826000000    -6.778000000    -2.511000000
H     2.764000000    -7.642000000    -2.919000000
H     2.832000000    -6.166000000    -3.247000000
O     0.071000000    -4.818000000    -1.377000000
H    -0.072000000    -3.930000000    -1.051000000
H     0.747000000    -4.721000000    -2.048000000
O     6.563000000    -5.933000000    -4.066000000
H     6.081000000    -5.590000000    -3.313000000
H     6.545000000    -5.221000000    -4.705000000
