215
-1476.39561
C    -3.832000000    -0.749000000    -2.730000000
H    -3.650000000     0.315000000    -2.851000000
C    -4.111000000    -1.315000000    -1.490000000
C    -4.226000000    -2.708000000    -1.316000000
H    -4.355000000    -3.114000000    -0.315000000
C    -4.081000000    -0.306000000    -0.336000000
O    -4.812000000     0.933000000    -0.548000000
H    -3.019000000    -0.129000000    -0.111000000
O    -4.674000000    -0.904000000     0.777000000
C    -4.022000000    -0.828000000     1.969000000
C    -3.229000000    -1.890000000     2.338000000
H    -3.285000000    -2.799000000     1.744000000
C    -2.347000000    -1.845000000     3.404000000
O    -1.567000000    -2.997000000     3.676000000
C    -2.286000000    -0.628000000     4.184000000
C    -1.383000000    -0.640000000     5.438000000
H    -1.760000000     0.102000000     6.145000000
C     0.019000000    -0.188000000     4.953000000
C     0.406000000     1.135000000     4.931000000
H    -0.261000000     1.858000000     5.394000000
H    -1.315000000    -1.594000000     5.964000000
C    -3.000000000     0.465000000     3.788000000
H    -2.871000000     1.398000000     4.329000000
C    -3.908000000     0.356000000     2.690000000
C    -4.814000000     1.572000000     2.254000000
H    -5.029000000     2.148000000     3.156000000
H    -5.728000000     1.101000000     1.884000000
C    -4.149000000     2.437000000     1.261000000
C    -3.327000000     3.483000000     1.699000000
H    -3.153000000     3.588000000     2.767000000
C    -4.172000000     2.070000000    -0.072000000
C    -3.499000000     2.823000000    -0.997000000
H    -3.652000000     2.506000000    -2.025000000
C    -2.700000000     3.948000000    -0.565000000
O    -1.912000000     4.543000000    -1.499000000
C    -0.538000000     4.062000000    -1.610000000
C    -0.099000000     3.978000000    -3.082000000
C     1.258000000     4.120000000    -3.477000000
H     1.981000000     4.387000000    -2.711000000
C    -1.057000000     3.627000000    -3.980000000
H    -2.052000000     3.348000000    -3.642000000
O     0.381000000     4.954000000    -0.889000000
H    -0.468000000     3.052000000    -1.180000000
C    -2.569000000     4.192000000     0.799000000
C    -1.580000000     5.221000000     1.370000000
H    -1.858000000     5.516000000     2.384000000
H    -1.701000000     6.129000000     0.776000000
C    -0.135000000     4.814000000     1.446000000
C     0.336000000     4.408000000     2.700000000
H    -0.424000000     4.353000000     3.475000000
C     0.770000000     4.660000000     0.382000000
C     2.049000000     4.159000000     0.581000000
H     2.627000000     4.019000000    -0.329000000
C     2.477000000     3.803000000     1.838000000
O     3.573000000     3.001000000     1.846000000
C     3.509000000     1.562000000     1.807000000
C     4.439000000     0.811000000     0.835000000
C     4.759000000     1.320000000    -0.428000000
H     4.477000000     2.352000000    -0.623000000
C     4.957000000    -0.446000000     1.092000000
H     4.786000000    -0.853000000     2.085000000
O     3.577000000     0.948000000     3.081000000
H     2.528000000     1.293000000     1.388000000
C     1.605000000     3.881000000     2.914000000
C     1.934000000     3.183000000     4.241000000
H     1.399000000     3.805000000     4.962000000
H     2.977000000     3.284000000     4.550000000
C     1.586000000     1.654000000     4.341000000
C     2.356000000     0.694000000     3.712000000
C     1.966000000    -0.630000000     3.662000000
H     2.591000000    -1.380000000     3.185000000
C     0.867000000    -1.025000000     4.302000000
O     0.569000000    -2.402000000     4.228000000
C    -0.277000000    -2.828000000     3.173000000
H    -0.317000000    -2.089000000     2.359000000
C     0.277000000    -4.122000000     2.566000000
C    -0.519000000    -4.838000000     1.672000000
H    -1.557000000    -4.533000000     1.566000000
C     1.565000000    -4.553000000     2.763000000
H     2.175000000    -3.999000000     3.473000000
C     2.113000000    -5.723000000     2.206000000
O     3.426000000    -5.994000000     2.195000000
C     1.321000000    -6.466000000     1.320000000
H     1.636000000    -7.401000000     0.864000000
C     0.024000000    -5.951000000     1.002000000
O    -0.753000000    -6.737000000     0.204000000
C    -2.114000000    -6.555000000    -0.039000000
C    -2.565000000    -5.802000000    -1.143000000
H    -1.823000000    -5.330000000    -1.782000000
C    -3.014000000    -7.125000000     0.807000000
H    -2.694000000    -7.843000000     1.558000000
C    -4.356000000    -6.842000000     0.658000000
H    -5.079000000    -7.271000000     1.347000000
C    -4.791000000    -6.037000000    -0.355000000
H    -5.838000000    -5.756000000    -0.442000000
C    -3.905000000    -5.528000000    -1.286000000
O    -4.311000000    -4.885000000    -2.404000000
C    -4.078000000    -3.538000000    -2.467000000
C    -3.756000000    -2.980000000    -3.731000000
H    -3.738000000    -3.611000000    -4.616000000
C    -3.586000000    -1.588000000    -3.792000000
O    -3.305000000    -1.109000000    -5.025000000
C    -3.531000000     0.151000000    -5.398000000
C    -2.461000000     1.025000000    -5.417000000
H    -1.528000000     0.676000000    -4.982000000
C    -4.798000000     0.460000000    -5.935000000
H    -5.600000000    -0.273000000    -5.916000000
C    -4.988000000     1.728000000    -6.475000000
H    -5.968000000     1.935000000    -6.897000000
C    -3.915000000     2.599000000    -6.601000000
H    -4.027000000     3.496000000    -7.205000000
C    -2.681000000     2.245000000    -6.020000000
O    -1.554000000     3.008000000    -6.258000000
C    -0.659000000     3.396000000    -5.333000000
C     0.630000000     3.680000000    -5.760000000
H     0.843000000     3.531000000    -6.815000000
C     1.655000000     3.959000000    -4.823000000
O     2.916000000     3.836000000    -5.237000000
C     3.937000000     3.709000000    -4.371000000
C     4.222000000     2.475000000    -3.870000000
H     3.658000000     1.632000000    -4.261000000
C     4.574000000     4.834000000    -3.936000000
H     4.215000000     5.784000000    -4.322000000
C     5.685000000     4.729000000    -3.107000000
H     6.137000000     5.638000000    -2.718000000
C     6.138000000     3.466000000    -2.646000000
H     7.043000000     3.406000000    -2.047000000
C     5.376000000     2.395000000    -3.019000000
O     5.728000000     1.108000000    -2.622000000
C     5.561000000     0.631000000    -1.381000000
C     5.883000000    -0.689000000    -1.083000000
H     6.341000000    -1.257000000    -1.888000000
C     5.703000000    -1.213000000     0.206000000
O     6.203000000    -2.517000000     0.426000000
C     5.753000000    -3.277000000     1.439000000
C     6.357000000    -3.105000000     2.674000000
H     7.187000000    -2.413000000     2.794000000
C     5.992000000    -3.912000000     3.761000000
H     6.606000000    -3.884000000     4.657000000
C     5.060000000    -4.911000000     3.545000000
H     4.704000000    -5.549000000     4.351000000
C     4.346000000    -4.994000000     2.323000000
C     4.732000000    -4.190000000     1.283000000
H     4.277000000    -4.376000000     0.313000000
C     2.558000000    -1.957000000    -1.034000000
H     3.222000000    -2.818000000    -1.041000000
C     1.812000000    -1.573000000     0.125000000
H     1.901000000    -2.254000000     0.967000000
C     1.125000000    -0.387000000     0.214000000
H     0.703000000    -0.118000000     1.198000000
C     1.173000000     0.437000000    -0.916000000
H     0.707000000     1.418000000    -0.870000000
C     1.813000000     0.050000000    -2.059000000
H     1.644000000     0.652000000    -2.948000000
C     2.544000000    -1.136000000    -2.131000000
C     3.255000000    -1.479000000    -3.377000000
O     2.997000000    -0.929000000    -4.428000000
O     4.139000000    -2.313000000    -3.339000000
O     3.153000000    -1.198000000    -8.932000000
H     2.683000000    -0.501000000    -9.391000000
H     2.818000000    -2.007000000    -9.318000000
O     6.806000000    -5.799000000    -4.263000000
H     6.100000000    -5.161000000    -4.371000000
H     7.434000000    -5.366000000    -3.686000000
O     2.694000000    -5.884000000    -6.816000000
H     3.608000000    -5.603000000    -6.846000000
H     2.632000000    -6.569000000    -7.482000000
O     4.803000000    -4.143000000    -5.077000000
H     4.450000000    -3.602000000    -4.371000000
H     4.704000000    -3.605000000    -5.863000000
O    -0.483000000    -0.119000000    -7.533000000
H    -0.427000000    -1.060000000    -7.364000000
H    -1.420000000     0.050000000    -7.633000000
O     3.636000000    -7.325000000    -1.586000000
H     3.599000000    -6.385000000    -1.413000000
H     4.284000000    -7.658000000    -0.965000000
O    -0.675000000    -2.649000000    -1.978000000
H    -0.923000000    -2.512000000    -1.063000000
H    -0.305000000    -1.810000000    -2.254000000
O     3.916000000     1.209000000    -7.169000000
H     3.081000000     1.219000000    -6.701000000
H     4.174000000     0.288000000    -7.179000000
O    -0.173000000    -2.812000000    -6.730000000
H    -0.139000000    -3.698000000    -7.092000000
H     0.070000000    -2.920000000    -5.811000000
O     5.043000000    -4.686000000    -1.931000000
H     4.706000000    -3.834000000    -2.211000000
H     5.984000000    -4.549000000    -1.826000000
O     4.497000000    -1.764000000    -6.537000000
H     3.937000000    -1.536000000    -7.279000000
H     3.992000000    -1.502000000    -5.767000000
O     8.691000000    -2.190000000    -3.588000000
H     9.056000000    -1.826000000    -4.394000000
H     7.828000000    -1.783000000    -3.509000000
O     8.817000000    -4.139000000    -1.677000000
H     8.982000000    -3.545000000    -0.944000000
H     8.577000000    -3.562000000    -2.402000000
O     6.356000000    -1.349000000    -4.637000000
H     5.672000000    -1.373000000    -3.969000000
H     5.887000000    -1.183000000    -5.455000000
O     7.690000000     2.298000000    -5.356000000
H     6.876000000     2.674000000    -5.693000000
H     7.406000000     1.589000000    -4.780000000
O     1.380000000     0.715000000    -5.879000000
H     0.705000000     0.349000000    -6.451000000
H     1.849000000    -0.049000000    -5.543000000
O    -0.338000000    -4.276000000    -4.266000000
H    -0.355000000    -3.684000000    -3.514000000
H     0.508000000    -4.720000000    -4.202000000
O     1.983000000    -5.694000000    -4.072000000
H     2.056000000    -5.701000000    -5.026000000
H     2.886000000    -5.620000000    -3.763000000
O     7.277000000    -3.229000000    -6.321000000
H     8.027000000    -2.664000000    -6.133000000
H     6.553000000    -2.838000000    -5.833000000
