215
-1454.28397
C    -3.472000000    -1.781000000    -3.668000000
H    -3.711000000    -0.750000000    -3.919000000
C    -3.673000000    -2.267000000    -2.372000000
C    -3.500000000    -3.614000000    -2.103000000
H    -3.530000000    -3.905000000    -1.056000000
C    -3.871000000    -1.245000000    -1.273000000
O    -4.689000000    -0.096000000    -1.707000000
H    -2.900000000    -0.904000000    -0.885000000
O    -4.622000000    -1.660000000    -0.069000000
C    -4.185000000    -1.215000000     1.165000000
C    -3.475000000    -2.156000000     1.923000000
H    -3.253000000    -3.121000000     1.475000000
C    -2.985000000    -1.826000000     3.163000000
O    -2.079000000    -2.759000000     3.626000000
C    -3.239000000    -0.577000000     3.770000000
C    -2.691000000    -0.117000000     5.081000000
H    -3.346000000     0.670000000     5.461000000
C    -1.300000000     0.524000000     4.800000000
C    -1.159000000     1.877000000     4.469000000
H    -2.068000000     2.464000000     4.365000000
H    -2.722000000    -0.951000000     5.786000000
C    -3.982000000     0.357000000     2.977000000
H    -4.138000000     1.301000000     3.493000000
C    -4.420000000     0.048000000     1.705000000
C    -5.258000000     1.062000000     0.849000000
H    -5.752000000     1.834000000     1.442000000
H    -6.068000000     0.561000000     0.314000000
C    -4.331000000     1.696000000    -0.093000000
C    -3.766000000     2.936000000     0.186000000
H    -3.930000000     3.408000000     1.151000000
C    -4.112000000     1.126000000    -1.377000000
C    -3.232000000     1.735000000    -2.235000000
H    -3.041000000     1.305000000    -3.215000000
C    -2.638000000     2.936000000    -1.921000000
O    -1.810000000     3.604000000    -2.770000000
C    -0.421000000     3.503000000    -2.416000000
C     0.389000000     3.202000000    -3.730000000
C     1.759000000     3.288000000    -3.703000000
H     2.230000000     3.613000000    -2.779000000
C    -0.291000000     2.718000000    -4.859000000
H    -1.346000000     2.530000000    -4.677000000
O     0.081000000     4.747000000    -1.756000000
H    -0.214000000     2.673000000    -1.724000000
C    -2.877000000     3.517000000    -0.681000000
C    -2.417000000     4.893000000    -0.343000000
H    -3.087000000     5.482000000     0.287000000
H    -2.464000000     5.526000000    -1.231000000
C    -1.027000000     4.834000000     0.339000000
C    -1.009000000     4.715000000     1.728000000
H    -1.927000000     4.699000000     2.310000000
C     0.145000000     4.734000000    -0.409000000
C     1.324000000     4.348000000     0.213000000
H     2.197000000     4.225000000    -0.422000000
C     1.352000000     4.257000000     1.588000000
O     2.546000000     3.788000000     2.146000000
C     2.709000000     2.359000000     2.409000000
C     4.050000000     1.735000000     2.014000000
C     4.688000000     2.086000000     0.786000000
H     4.096000000     2.741000000     0.152000000
C     4.574000000     0.723000000     2.812000000
H     4.189000000     0.360000000     3.761000000
O     2.411000000     2.054000000     3.786000000
H     1.917000000     1.810000000     1.877000000
C     0.230000000     4.353000000     2.342000000
C     0.154000000     3.924000000     3.862000000
H    -0.700000000     4.518000000     4.194000000
H     0.966000000     4.354000000     4.452000000
C     0.071000000     2.421000000     4.157000000
C     1.169000000     1.567000000     4.080000000
C     1.041000000     0.220000000     4.454000000
H     1.841000000    -0.505000000     4.580000000
C    -0.157000000    -0.314000000     4.815000000
O    -0.317000000    -1.703000000     4.855000000
C    -0.714000000    -2.344000000     3.598000000
H    -0.629000000    -1.622000000     2.772000000
C     0.163000000    -3.552000000     3.240000000
C    -0.445000000    -4.582000000     2.433000000
H    -1.484000000    -4.509000000     2.122000000
C     1.489000000    -3.593000000     3.568000000
H     1.926000000    -2.881000000     4.263000000
C     2.282000000    -4.645000000     3.150000000
O     3.604000000    -4.614000000     3.425000000
C     1.688000000    -5.629000000     2.441000000
H     2.291000000    -6.377000000     1.933000000
C     0.372000000    -5.608000000     2.052000000
O    -0.025000000    -6.512000000     1.100000000
C    -1.193000000    -6.611000000     0.404000000
C    -1.291000000    -6.223000000    -0.933000000
H    -0.448000000    -5.799000000    -1.472000000
C    -2.325000000    -7.057000000     1.041000000
H    -2.287000000    -7.358000000     2.084000000
C    -3.471000000    -7.316000000     0.376000000
H    -4.317000000    -7.731000000     0.919000000
C    -3.635000000    -7.008000000    -0.957000000
H    -4.566000000    -7.126000000    -1.506000000
C    -2.528000000    -6.349000000    -1.616000000
O    -2.842000000    -5.830000000    -2.867000000
C    -3.061000000    -4.471000000    -3.096000000
C    -2.757000000    -3.956000000    -4.321000000
H    -2.494000000    -4.557000000    -5.188000000
C    -3.027000000    -2.646000000    -4.643000000
O    -2.678000000    -2.159000000    -5.897000000
C    -2.670000000    -0.868000000    -6.300000000
C    -1.491000000    -0.161000000    -6.359000000
H    -0.625000000    -0.674000000    -5.949000000
C    -3.850000000    -0.268000000    -6.762000000
H    -4.817000000    -0.739000000    -6.603000000
C    -3.743000000     0.942000000    -7.378000000
H    -4.675000000     1.447000000    -7.617000000
C    -2.528000000     1.579000000    -7.519000000
H    -2.528000000     2.545000000    -8.017000000
C    -1.369000000     1.022000000    -7.016000000
O    -0.277000000     1.792000000    -7.059000000
C     0.459000000     2.323000000    -5.963000000
C     1.865000000     2.396000000    -5.947000000
H     2.434000000     2.128000000    -6.833000000
C     2.491000000     2.865000000    -4.803000000
O     3.834000000     2.690000000    -4.742000000
C     4.732000000     3.057000000    -3.784000000
C     5.282000000     2.137000000    -2.850000000
H     4.853000000     1.139000000    -2.811000000
C     5.042000000     4.407000000    -3.764000000
H     4.624000000     5.083000000    -4.506000000
C     5.891000000     4.871000000    -2.784000000
H     6.147000000     5.926000000    -2.826000000
C     6.395000000     4.054000000    -1.777000000
H     7.065000000     4.387000000    -0.989000000
C     6.057000000     2.674000000    -1.750000000
O     6.545000000     1.830000000    -0.790000000
C     5.889000000     1.482000000     0.357000000
C     6.400000000     0.478000000     1.175000000
H     7.302000000    -0.085000000     0.951000000
C     5.751000000     0.148000000     2.379000000
O     6.435000000    -0.692000000     3.208000000
C     5.841000000    -1.667000000     3.922000000
C     5.763000000    -1.572000000     5.360000000
H     6.271000000    -0.803000000     5.936000000
C     5.052000000    -2.501000000     6.086000000
H     5.063000000    -2.503000000     7.173000000
C     4.309000000    -3.461000000     5.381000000
H     3.792000000    -4.229000000     5.950000000
C     4.367000000    -3.624000000     3.979000000
C     5.129000000    -2.692000000     3.232000000
H     5.018000000    -2.681000000     2.151000000
C     2.386000000    -1.136000000     0.103000000
H     3.385000000    -1.554000000     0.196000000
C     1.510000000    -0.769000000     1.110000000
H     1.763000000    -0.895000000     2.159000000
C     0.246000000    -0.256000000     0.851000000
H    -0.349000000     0.080000000     1.737000000
C    -0.121000000    -0.099000000    -0.451000000
H    -1.137000000     0.221000000    -0.669000000
C     0.819000000    -0.330000000    -1.548000000
H     0.611000000    -0.035000000    -2.573000000
C     2.091000000    -0.807000000    -1.252000000
C     3.144000000    -1.046000000    -2.357000000
O     2.855000000    -0.848000000    -3.523000000
O     4.307000000    -1.360000000    -2.092000000
O    -0.210000000    -6.209000000    -4.426000000
H    -0.788000000    -5.448000000    -4.374000000
H     0.671000000    -5.839000000    -4.467000000
O     0.435000000    -3.400000000    -3.253000000
H    -0.299000000    -3.004000000    -2.784000000
H     1.057000000    -3.641000000    -2.566000000
O     5.735000000     1.198000000    -6.847000000
H     6.530000000     0.671000000    -6.772000000
H     5.030000000     0.606000000    -6.584000000
O     8.346000000     0.687000000    -3.342000000
H     8.144000000     1.168000000    -2.540000000
H     7.491000000     0.456000000    -3.704000000
O     1.393000000    -2.045000000    -5.419000000
H     0.903000000    -2.652000000    -4.863000000
H     2.009000000    -1.619000000    -4.824000000
O     5.294000000    -3.867000000    -1.850000000
H     5.044000000    -2.943000000    -1.892000000
H     6.218000000    -3.854000000    -1.600000000
O     3.981000000    -3.335000000    -4.586000000
H     3.979000000    -2.707000000    -3.864000000
H     3.164000000    -3.164000000    -5.054000000
O     8.040000000    -3.492000000    -1.354000000
H     8.545000000    -2.782000000    -0.958000000
H     8.666000000    -3.944000000    -1.920000000
O     6.221000000    -1.029000000    -3.947000000
H     5.621000000    -0.705000000    -4.619000000
H     5.658000000    -1.230000000    -3.199000000
O     3.982000000     0.045000000    -8.866000000
H     4.172000000     0.455000000    -8.023000000
H     4.092000000    -0.893000000    -8.707000000
O     2.391000000    -6.280000000    -5.518000000
H     3.061000000    -5.659000000    -5.231000000
H     2.687000000    -7.125000000    -5.180000000
O     9.982000000    -1.378000000    -3.320000000
H     9.217000000    -0.828000000    -3.149000000
H    10.233000000    -1.713000000    -2.459000000
O     4.214000000    -5.503000000     0.103000000
H     4.996000000    -5.497000000     0.655000000
H     4.289000000    -4.710000000    -0.427000000
O     3.722000000    -0.328000000    -5.956000000
H     2.881000000    -0.625000000    -6.303000000
H     3.525000000    -0.039000000    -5.065000000
O     0.570000000    -1.802000000    -8.301000000
H     0.348000000    -1.942000000    -7.380000000
H     1.167000000    -2.520000000    -8.514000000
O     6.995000000    -4.588000000     1.170000000
H     7.145000000    -4.072000000     0.379000000
H     7.561000000    -4.186000000     1.830000000
O     4.421000000    -5.908000000    -3.211000000
H     4.676000000    -5.096000000    -2.773000000
H     3.572000000    -6.131000000    -2.827000000
O     1.893000000    -4.507000000    -0.806000000
H     2.556000000    -5.046000000    -0.375000000
H     1.816000000    -3.732000000    -0.250000000
O     6.550000000    -3.249000000    -5.501000000
H     6.811000000    -2.538000000    -4.916000000
H     5.616000000    -3.102000000    -5.654000000
