215
-1416.39329
C     2.327000000     2.829000000    -2.817000000
H     2.106000000     1.952000000    -3.421000000
C     3.117000000     2.771000000    -1.684000000
C     3.188000000     3.935000000    -0.888000000
H     3.843000000     3.946000000    -0.020000000
C     3.668000000     1.410000000    -1.207000000
O     4.283000000     0.667000000    -2.302000000
H     2.776000000     0.910000000    -0.801000000
O     4.580000000     1.562000000    -0.145000000
C     4.338000000     0.840000000     0.936000000
C     3.744000000     1.437000000     2.032000000
H     3.504000000     2.496000000     1.990000000
C     3.345000000     0.714000000     3.129000000
O     2.571000000     1.286000000     4.131000000
C     3.700000000    -0.634000000     3.176000000
C     3.217000000    -1.594000000     4.323000000
H     3.835000000    -2.484000000     4.462000000
C     1.782000000    -1.980000000     4.089000000
C     1.524000000    -3.205000000     3.560000000
H     2.377000000    -3.861000000     3.406000000
H     3.221000000    -1.048000000     5.270000000
C     4.395000000    -1.263000000     2.082000000
H     4.589000000    -2.322000000     1.935000000
C     4.671000000    -0.509000000     0.973000000
C     5.303000000    -1.220000000    -0.201000000
H     5.782000000    -2.113000000     0.207000000
H     6.101000000    -0.549000000    -0.527000000
C     4.392000000    -1.644000000    -1.261000000
C     3.867000000    -2.981000000    -1.257000000
H     4.271000000    -3.734000000    -0.585000000
C     3.996000000    -0.722000000    -2.259000000
C     3.143000000    -1.190000000    -3.232000000
H     2.692000000    -0.478000000    -3.918000000
C     2.626000000    -2.438000000    -3.182000000
O     1.612000000    -2.659000000    -4.071000000
C     0.267000000    -2.561000000    -3.555000000
C    -0.739000000    -1.909000000    -4.521000000
C    -2.116000000    -2.176000000    -4.419000000
H    -2.476000000    -2.897000000    -3.690000000
C    -0.246000000    -1.015000000    -5.461000000
H     0.783000000    -0.678000000    -5.559000000
O    -0.254000000    -3.831000000    -3.090000000
H     0.295000000    -1.893000000    -2.681000000
C     3.008000000    -3.359000000    -2.204000000
C     2.457000000    -4.719000000    -2.050000000
H     3.261000000    -5.331000000    -1.637000000
H     2.387000000    -5.243000000    -3.006000000
C     1.141000000    -4.611000000    -1.249000000
C     1.228000000    -4.867000000     0.145000000
H     2.180000000    -5.169000000     0.573000000
C    -0.086000000    -4.187000000    -1.764000000
C    -1.188000000    -4.028000000    -0.935000000
H    -2.121000000    -3.667000000    -1.361000000
C    -1.145000000    -4.317000000     0.380000000
O    -2.249000000    -4.168000000     1.146000000
C    -2.435000000    -2.888000000     1.725000000
C    -3.803000000    -2.372000000     1.502000000
C    -4.625000000    -2.793000000     0.482000000
H    -4.271000000    -3.539000000    -0.225000000
C    -4.256000000    -1.275000000     2.266000000
H    -3.616000000    -0.958000000     3.085000000
O    -2.107000000    -3.080000000     3.131000000
H    -1.711000000    -2.221000000     1.233000000
C     0.061000000    -4.784000000     0.924000000
C     0.257000000    -4.971000000     2.452000000
H     1.197000000    -5.476000000     2.684000000
H    -0.497000000    -5.663000000     2.834000000
C     0.274000000    -3.620000000     3.149000000
C    -0.762000000    -2.772000000     3.424000000
C    -0.557000000    -1.569000000     4.066000000
H    -1.480000000    -1.059000000     4.327000000
C     0.706000000    -1.236000000     4.431000000
O     0.802000000     0.020000000     4.933000000
C     1.166000000     1.114000000     4.076000000
H     0.938000000     0.746000000     3.064000000
C     0.378000000     2.412000000     4.272000000
C     1.044000000     3.661000000     4.096000000
H     2.110000000     3.700000000     3.890000000
C    -0.980000000     2.370000000     4.534000000
H    -1.554000000     1.450000000     4.464000000
C    -1.636000000     3.570000000     4.720000000
O    -2.981000000     3.554000000     4.937000000
C    -0.957000000     4.798000000     4.474000000
H    -1.538000000     5.711000000     4.576000000
C     0.324000000     4.831000000     4.101000000
O     0.883000000     6.089000000     3.844000000
C     2.034000000     6.177000000     3.049000000
C     1.817000000     6.204000000     1.654000000
H     0.824000000     6.034000000     1.246000000
C     3.343000000     6.186000000     3.600000000
H     3.485000000     6.103000000     4.675000000
C     4.461000000     6.408000000     2.739000000
H     5.490000000     6.560000000     3.056000000
C     4.160000000     6.454000000     1.369000000
H     4.999000000     6.609000000     0.695000000
C     2.903000000     6.425000000     0.878000000
O     2.713000000     6.289000000    -0.547000000
C     2.465000000     5.117000000    -1.185000000
C     1.700000000     5.164000000    -2.405000000
H     1.245000000     6.116000000    -2.667000000
C     1.670000000     4.037000000    -3.197000000
O     0.835000000     4.125000000    -4.309000000
C     1.034000000     3.367000000    -5.383000000
C     0.078000000     2.386000000    -5.622000000
H    -0.747000000     2.228000000    -4.932000000
C     2.184000000     3.527000000    -6.155000000
H     3.032000000     4.131000000    -5.843000000
C     2.287000000     2.747000000    -7.294000000
H     3.224000000     2.772000000    -7.844000000
C     1.263000000     1.944000000    -7.703000000
H     1.275000000     1.562000000    -8.721000000
C     0.243000000     1.647000000    -6.829000000
O    -0.745000000     0.726000000    -7.170000000
C    -1.204000000    -0.260000000    -6.189000000
C    -2.573000000    -0.396000000    -5.990000000
H    -3.229000000     0.238000000    -6.580000000
C    -3.075000000    -1.325000000    -5.126000000
O    -4.368000000    -1.387000000    -4.778000000
C    -4.917000000    -2.379000000    -4.036000000
C    -5.389000000    -2.108000000    -2.737000000
H    -5.094000000    -1.167000000    -2.280000000
C    -5.321000000    -3.571000000    -4.630000000
H    -5.148000000    -3.645000000    -5.700000000
C    -6.147000000    -4.481000000    -3.842000000
H    -6.530000000    -5.363000000    -4.349000000
C    -6.523000000    -4.175000000    -2.545000000
H    -7.035000000    -4.965000000    -2.000000000
C    -6.166000000    -2.982000000    -2.002000000
O    -6.656000000    -2.634000000    -0.734000000
C    -5.836000000    -2.152000000     0.213000000
C    -6.269000000    -1.096000000     1.009000000
H    -7.094000000    -0.519000000     0.598000000
C    -5.530000000    -0.666000000     2.070000000
O    -5.850000000     0.495000000     2.766000000
C    -5.335000000     0.962000000     4.002000000
C    -5.497000000     0.277000000     5.190000000
H    -6.074000000    -0.643000000     5.202000000
C    -4.775000000     0.645000000     6.289000000
H    -4.904000000     0.076000000     7.206000000
C    -3.870000000     1.699000000     6.253000000
H    -3.279000000     1.964000000     7.126000000
C    -3.794000000     2.443000000     5.048000000
C    -4.503000000     2.059000000     3.912000000
H    -4.470000000     2.756000000     3.079000000
C    -2.196000000     0.834000000    -0.373000000
H    -2.997000000     0.414000000    -0.976000000
C    -0.941000000     0.146000000    -0.429000000
H    -0.788000000    -0.824000000    -0.896000000
C     0.177000000     0.653000000     0.355000000
H     1.034000000     0.008000000     0.518000000
C     0.047000000     1.944000000     0.965000000
H     0.864000000     2.436000000     1.486000000
C    -1.192000000     2.474000000     1.080000000
H    -1.344000000     3.332000000     1.730000000
C    -2.276000000     2.008000000     0.327000000
C    -3.621000000     2.783000000     0.400000000
O    -3.782000000     3.834000000     1.024000000
O    -4.464000000     2.432000000    -0.362000000
O    -9.073000000     2.399000000    -0.185000000
H    -8.864000000     1.850000000     0.570000000
H    -9.767000000     1.923000000    -0.642000000
O    -4.608000000     7.337000000    -4.094000000
H    -5.052000000     8.155000000    -4.317000000
H    -5.317000000     6.721000000    -3.910000000
O    -3.988000000     5.559000000     3.130000000
H    -3.728000000     4.891000000     2.496000000
H    -4.137000000     5.073000000     3.942000000
O    -6.989000000     4.899000000    -2.987000000
H    -7.320000000     4.128000000    -3.447000000
H    -6.539000000     4.546000000    -2.219000000
O    -1.648000000     5.595000000    -2.210000000
H    -2.391000000     5.758000000    -1.629000000
H    -1.652000000     4.647000000    -2.343000000
O    -4.560000000     2.271000000    -2.917000000
H    -4.418000000     2.392000000    -1.978000000
H    -5.459000000     1.951000000    -2.983000000
O    -6.888000000     1.701000000    -1.691000000
H    -7.668000000     1.958000000    -1.198000000
H    -6.162000000     1.847000000    -1.085000000
O    -2.093000000     4.975000000    -5.307000000
H    -1.276000000     4.857000000    -4.824000000
H    -2.772000000     4.977000000    -4.632000000
O    -6.235000000     4.681000000    -0.170000000
H    -5.446000000     4.181000000     0.039000000
H    -6.938000000     4.032000000    -0.166000000
O    -0.875000000     7.963000000     0.551000000
H    -1.709000000     7.492000000     0.551000000
H    -0.793000000     8.304000000     1.441000000
O    -4.699000000     7.783000000     5.408000000
H    -4.830000000     6.946000000     4.963000000
H    -5.010000000     8.438000000     4.783000000
O    -1.970000000     8.188000000    -3.371000000
H    -2.833000000     8.097000000    -3.776000000
H    -1.632000000     7.294000000    -3.326000000
O    -6.921000000     8.092000000     0.174000000
H    -7.525000000     7.678000000    -0.442000000
H    -6.957000000     7.539000000     0.954000000
O    -3.537000000     5.908000000    -0.309000000
H    -3.625000000     5.042000000     0.089000000
H    -4.427000000     6.260000000    -0.316000000
O    -3.401000000     7.996000000     2.317000000
H    -3.882000000     7.200000000     2.546000000
H    -2.579000000     7.927000000     2.804000000
O    -6.574000000     6.899000000     2.565000000
H    -6.934000000     6.871000000     3.451000000
H    -5.943000000     6.179000000     2.540000000
O    -8.831000000     6.274000000    -1.338000000
H    -9.417000000     5.709000000    -0.835000000
H    -8.116000000     5.698000000    -1.608000000
O    -5.549000000     3.825000000    -5.603000000
H    -6.290000000     4.016000000    -5.028000000
H    -5.312000000     2.921000000    -5.397000000
O    -1.164000000     3.068000000    -2.205000000
H    -0.485000000     2.995000000    -1.534000000
H    -1.740000000     2.320000000    -2.046000000
