215
-1452.12741
C    -4.049000000    -2.637000000    -1.978000000
H    -4.134000000    -1.819000000    -2.690000000
C    -4.364000000    -2.441000000    -0.661000000
C    -4.299000000    -3.569000000     0.219000000
H    -4.587000000    -3.480000000     1.263000000
C    -4.446000000    -1.058000000    -0.198000000
O    -5.197000000    -0.195000000    -1.047000000
H    -3.428000000    -0.645000000    -0.155000000
O    -4.956000000    -1.005000000     1.142000000
C    -4.260000000    -0.399000000     2.120000000
C    -3.319000000    -1.056000000     2.872000000
H    -3.323000000    -2.142000000     2.824000000
C    -2.459000000    -0.382000000     3.736000000
O    -1.430000000    -1.057000000     4.356000000
C    -2.548000000     1.001000000     3.792000000
C    -1.640000000     1.708000000     4.782000000
H    -2.046000000     2.598000000     5.266000000
C    -0.362000000     2.045000000     4.124000000
C    -0.154000000     3.191000000     3.357000000
H    -1.011000000     3.835000000     3.177000000
H    -1.452000000     0.987000000     5.581000000
C    -3.523000000     1.666000000     3.072000000
H    -3.639000000     2.742000000     3.180000000
C    -4.422000000     0.988000000     2.314000000
C    -5.385000000     1.799000000     1.329000000
H    -5.586000000     2.717000000     1.885000000
H    -6.333000000     1.291000000     1.136000000
C    -4.717000000     2.095000000    -0.028000000
C    -4.005000000     3.263000000    -0.125000000
H    -4.034000000     3.938000000     0.726000000
C    -4.612000000     1.123000000    -1.050000000
C    -3.863000000     1.497000000    -2.172000000
H    -3.704000000     0.758000000    -2.953000000
C    -3.201000000     2.705000000    -2.288000000
O    -2.430000000     2.943000000    -3.399000000
C    -0.995000000     2.807000000    -3.295000000
C    -0.322000000     2.080000000    -4.456000000
C     0.928000000     2.533000000    -4.895000000
H     1.304000000     3.472000000    -4.497000000
C    -0.823000000     0.829000000    -4.878000000
H    -1.749000000     0.436000000    -4.465000000
O    -0.520000000     4.166000000    -3.160000000
H    -0.702000000     2.337000000    -2.344000000
C    -3.263000000     3.618000000    -1.289000000
C    -2.502000000     4.883000000    -1.281000000
H    -3.099000000     5.482000000    -0.591000000
H    -2.697000000     5.253000000    -2.290000000
C    -1.035000000     4.726000000    -0.908000000
C    -0.629000000     4.869000000     0.413000000
H    -1.365000000     5.068000000     1.187000000
C    -0.070000000     4.399000000    -1.872000000
C     1.287000000     4.210000000    -1.575000000
H     1.921000000     3.951000000    -2.419000000
C     1.655000000     4.200000000    -0.261000000
O     2.902000000     3.908000000     0.075000000
C     3.253000000     2.624000000     0.789000000
C     4.521000000     1.937000000     0.240000000
C     4.780000000     1.857000000    -1.128000000
H     4.257000000     2.502000000    -1.829000000
C     5.112000000     0.959000000     1.050000000
H     4.870000000     0.946000000     2.110000000
O     3.327000000     2.838000000     2.240000000
H     2.371000000     2.012000000     0.545000000
C     0.726000000     4.657000000     0.713000000
C     1.117000000     4.902000000     2.143000000
H     0.508000000     5.606000000     2.714000000
H     2.145000000     5.254000000     2.255000000
C     1.052000000     3.509000000     2.798000000
C     2.146000000     2.631000000     2.951000000
C     1.968000000     1.427000000     3.607000000
H     2.772000000     0.697000000     3.642000000
C     0.727000000     1.193000000     4.188000000
O     0.592000000    -0.086000000     4.746000000
C    -0.093000000    -0.978000000     3.881000000
H    -0.186000000    -0.599000000     2.853000000
C     0.485000000    -2.383000000     3.899000000
C    -0.246000000    -3.522000000     3.612000000
H    -1.328000000    -3.423000000     3.655000000
C     1.889000000    -2.496000000     4.050000000
H     2.454000000    -1.578000000     4.189000000
C     2.485000000    -3.734000000     4.043000000
O     3.820000000    -3.859000000     4.092000000
C     1.722000000    -4.898000000     3.992000000
H     2.091000000    -5.920000000     3.960000000
C     0.382000000    -4.798000000     3.745000000
O    -0.270000000    -5.926000000     3.577000000
C    -1.643000000    -5.990000000     3.361000000
C    -2.067000000    -5.840000000     2.043000000
H    -1.344000000    -5.598000000     1.267000000
C    -2.494000000    -6.253000000     4.398000000
H    -2.073000000    -6.235000000     5.401000000
C    -3.865000000    -6.359000000     4.085000000
H    -4.548000000    -6.602000000     4.895000000
C    -4.307000000    -6.178000000     2.769000000
H    -5.360000000    -6.368000000     2.579000000
C    -3.425000000    -5.923000000     1.770000000
O    -3.952000000    -5.982000000     0.496000000
C    -4.002000000    -4.856000000    -0.315000000
C    -3.749000000    -4.987000000    -1.663000000
H    -3.390000000    -5.919000000    -2.092000000
C    -3.638000000    -3.877000000    -2.448000000
O    -3.133000000    -4.065000000    -3.660000000
C    -2.923000000    -3.114000000    -4.602000000
C    -1.672000000    -2.633000000    -4.982000000
H    -0.710000000    -2.976000000    -4.612000000
C    -4.057000000    -2.495000000    -5.156000000
H    -5.027000000    -2.747000000    -4.735000000
C    -3.944000000    -1.653000000    -6.183000000
H    -4.858000000    -1.256000000    -6.617000000
C    -2.669000000    -1.203000000    -6.578000000
H    -2.588000000    -0.570000000    -7.458000000
C    -1.570000000    -1.651000000    -5.952000000
O    -0.404000000    -1.207000000    -6.266000000
C    -0.028000000     0.033000000    -5.766000000
C     1.173000000     0.533000000    -6.225000000
H     1.660000000    -0.108000000    -6.955000000
C     1.653000000     1.751000000    -5.771000000
O     2.846000000     2.181000000    -6.223000000
C     3.996000000     2.442000000    -5.494000000
C     4.473000000     1.478000000    -4.559000000
H     3.959000000     0.520000000    -4.551000000
C     4.721000000     3.655000000    -5.645000000
H     4.374000000     4.433000000    -6.319000000
C     5.914000000     3.859000000    -4.956000000
H     6.427000000     4.804000000    -5.120000000
C     6.397000000     2.898000000    -4.076000000
H     7.313000000     2.992000000    -3.497000000
C     5.722000000     1.678000000    -3.924000000
O     6.044000000     0.813000000    -2.937000000
C     5.631000000     0.883000000    -1.652000000
C     6.321000000     0.059000000    -0.756000000
H     6.915000000    -0.773000000    -1.125000000
C     5.876000000    -0.019000000     0.528000000
O     6.462000000    -1.099000000     1.247000000
C     6.100000000    -1.432000000     2.553000000
C     6.797000000    -0.908000000     3.619000000
H     7.723000000    -0.348000000     3.518000000
C     6.420000000    -1.389000000     4.916000000
H     6.821000000    -0.909000000     5.805000000
C     5.434000000    -2.339000000     5.081000000
H     5.086000000    -2.774000000     6.014000000
C     4.744000000    -2.799000000     3.955000000
C     5.107000000    -2.399000000     2.680000000
H     4.513000000    -2.737000000     1.834000000
C     1.011000000    -0.360000000     0.348000000
H     1.892000000    -0.358000000     0.986000000
C    -0.037000000     0.636000000     0.352000000
H    -0.007000000     1.512000000     0.995000000
C    -1.121000000     0.485000000    -0.500000000
H    -1.885000000     1.289000000    -0.541000000
C    -1.286000000    -0.648000000    -1.325000000
H    -2.126000000    -0.647000000    -2.015000000
C    -0.304000000    -1.661000000    -1.237000000
H    -0.480000000    -2.540000000    -1.852000000
C     0.862000000    -1.520000000    -0.450000000
C     1.996000000    -2.472000000    -0.487000000
O     1.756000000    -3.655000000    -0.867000000
O     3.137000000    -2.176000000    -0.356000000
O     6.118000000    -5.836000000     3.977000000
H     5.570000000    -5.845000000     3.192000000
H     5.569000000    -6.230000000     4.655000000
O     0.611000000    -5.558000000    -6.320000000
H     0.261000000    -5.811000000    -5.466000000
H    -0.112000000    -5.706000000    -6.929000000
O     1.713000000    -9.199000000    -1.078000000
H     2.454000000    -8.670000000    -1.372000000
H     1.506000000    -9.760000000    -1.825000000
O    -0.860000000    -8.194000000     0.287000000
H    -0.928000000    -7.363000000    -0.184000000
H    -1.091000000    -8.857000000    -0.363000000
O     3.035000000    -5.649000000    -5.259000000
H     2.199000000    -5.638000000    -5.725000000
H     3.041000000    -4.832000000    -4.760000000
O     5.074000000    -8.131000000    -0.498000000
H     5.414000000    -7.510000000     0.146000000
H     4.505000000    -7.605000000    -1.060000000
O     2.943000000    -3.896000000    -3.338000000
H     2.253000000    -3.811000000    -2.679000000
H     3.535000000    -3.165000000    -3.159000000
O    -0.253000000    -6.165000000    -3.687000000
H     0.308000000    -6.879000000    -3.991000000
H    -1.138000000    -6.528000000    -3.717000000
O     4.429000000    -1.718000000    -2.746000000
H     4.850000000    -0.891000000    -2.979000000
H     4.133000000    -1.591000000    -1.845000000
O     0.394000000    -5.817000000    -1.035000000
H     0.819000000    -4.964000000    -0.949000000
H     0.286000000    -5.937000000    -1.978000000
O     4.793000000    -6.311000000     1.518000000
H     4.671000000    -5.417000000     1.200000000
H     3.912000000    -6.608000000     1.744000000
O     3.140000000    -6.510000000    -1.923000000
H     2.237000000    -6.333000000    -1.661000000
H     3.280000000    -5.956000000    -2.690000000
O     7.403000000    -5.265000000    -0.901000000
H     7.687000000    -5.438000000    -0.003000000
H     6.550000000    -4.843000000    -0.805000000
O     4.869000000    -4.305000000    -0.556000000
H     4.307000000    -3.531000000    -0.525000000
H     4.284000000    -5.016000000    -0.817000000
O     6.804000000    -3.077000000    -3.514000000
H     5.959000000    -2.642000000    -3.405000000
H     6.592000000    -3.910000000    -3.937000000
O     1.531000000    -2.974000000    -6.775000000
H     0.694000000    -2.515000000    -6.699000000
H     1.443000000    -3.730000000    -6.194000000
O     2.532000000    -4.962000000     1.237000000
H     2.386000000    -4.489000000     0.418000000
H     2.460000000    -4.292000000     1.917000000
O     1.647000000    -7.634000000     1.450000000
H     0.908000000    -7.833000000     0.875000000
H     1.505000000    -6.726000000     1.717000000
O     8.341000000    -3.527000000     1.666000000
H     7.585000000    -3.084000000     1.281000000
H     8.150000000    -3.555000000     2.604000000
