215
-1438.25929
C    -3.609000000    -2.584000000    -2.981000000
H    -3.464000000    -1.749000000    -3.661000000
C    -4.022000000    -2.478000000    -1.637000000
C    -4.118000000    -3.647000000    -0.825000000
H    -4.515000000    -3.598000000     0.186000000
C    -4.292000000    -1.152000000    -1.103000000
O    -4.833000000    -0.242000000    -2.036000000
H    -3.303000000    -0.748000000    -0.841000000
O    -5.008000000    -1.246000000     0.132000000
C    -4.506000000    -0.667000000     1.258000000
C    -3.565000000    -1.396000000     2.012000000
H    -3.474000000    -2.476000000     1.930000000
C    -2.892000000    -0.703000000     3.021000000
O    -1.833000000    -1.346000000     3.636000000
C    -3.144000000     0.636000000     3.342000000
C    -2.434000000     1.344000000     4.566000000
H    -3.044000000     2.173000000     4.931000000
C    -1.050000000     1.955000000     4.299000000
C    -0.869000000     3.227000000     3.800000000
H    -1.726000000     3.815000000     3.480000000
H    -2.462000000     0.573000000     5.339000000
C    -4.055000000     1.305000000     2.573000000
H    -4.302000000     2.358000000     2.681000000
C    -4.673000000     0.708000000     1.491000000
C    -5.536000000     1.532000000     0.546000000
H    -5.895000000     2.339000000     1.188000000
H    -6.336000000     0.855000000     0.238000000
C    -4.763000000     1.897000000    -0.719000000
C    -4.037000000     3.090000000    -0.711000000
H    -4.145000000     3.675000000     0.199000000
C    -4.531000000     1.077000000    -1.899000000
C    -3.708000000     1.446000000    -2.922000000
H    -3.415000000     0.761000000    -3.713000000
C    -2.946000000     2.635000000    -2.801000000
O    -1.865000000     2.872000000    -3.603000000
C    -0.583000000     2.561000000    -3.103000000
C     0.159000000     1.675000000    -4.135000000
C     1.530000000     1.632000000    -4.117000000
H     2.060000000     2.084000000    -3.282000000
C    -0.488000000     0.894000000    -5.103000000
H    -1.573000000     0.957000000    -5.095000000
O     0.134000000     3.768000000    -2.835000000
H    -0.664000000     2.112000000    -2.102000000
C    -3.188000000     3.467000000    -1.674000000
C    -2.359000000     4.723000000    -1.436000000
H    -2.812000000     5.519000000    -0.842000000
H    -2.180000000     5.256000000    -2.372000000
C    -1.010000000     4.519000000    -0.801000000
C    -0.858000000     4.864000000     0.563000000
H    -1.718000000     5.193000000     1.141000000
C     0.168000000     4.177000000    -1.552000000
C     1.346000000     4.047000000    -0.896000000
H     2.251000000     3.981000000    -1.495000000
C     1.444000000     4.267000000     0.473000000
O     2.761000000     4.161000000     0.985000000
C     2.961000000     3.046000000     1.835000000
C     4.338000000     2.455000000     1.590000000
C     4.797000000     2.289000000     0.287000000
H     4.261000000     2.705000000    -0.562000000
C     5.065000000     1.892000000     2.692000000
H     4.772000000     2.121000000     3.714000000
O     2.722000000     3.233000000     3.195000000
H     2.306000000     2.221000000     1.518000000
C     0.321000000     4.686000000     1.247000000
C     0.542000000     5.010000000     2.742000000
H    -0.208000000     5.731000000     3.074000000
H     1.537000000     5.435000000     2.888000000
C     0.385000000     3.672000000     3.482000000
C     1.501000000     2.925000000     3.701000000
C     1.337000000     1.636000000     4.241000000
H     2.238000000     1.063000000     4.450000000
C     0.058000000     1.141000000     4.433000000
O    -0.068000000    -0.199000000     4.552000000
C    -0.477000000    -0.988000000     3.394000000
H    -0.389000000    -0.302000000     2.539000000
C     0.450000000    -2.206000000     3.192000000
C    -0.141000000    -3.375000000     2.704000000
H    -1.206000000    -3.417000000     2.492000000
C     1.784000000    -2.195000000     3.546000000
H     2.268000000    -1.275000000     3.866000000
C     2.562000000    -3.321000000     3.452000000
O     3.900000000    -3.306000000     3.773000000
C     1.944000000    -4.497000000     3.029000000
H     2.643000000    -5.329000000     3.044000000
C     0.623000000    -4.536000000     2.692000000
O     0.125000000    -5.744000000     2.167000000
C    -1.250000000    -6.102000000     2.041000000
C    -1.886000000    -6.042000000     0.730000000
H    -1.243000000    -5.803000000    -0.113000000
C    -2.149000000    -6.390000000     3.183000000
H    -1.713000000    -6.394000000     4.179000000
C    -3.489000000    -6.732000000     2.991000000
H    -4.107000000    -6.937000000     3.861000000
C    -4.061000000    -6.725000000     1.679000000
H    -5.123000000    -6.940000000     1.604000000
C    -3.339000000    -6.284000000     0.581000000
O    -3.965000000    -6.082000000    -0.648000000
C    -3.851000000    -4.894000000    -1.374000000
C    -3.427000000    -5.010000000    -2.713000000
H    -3.258000000    -6.048000000    -2.989000000
C    -3.281000000    -3.849000000    -3.527000000
O    -3.069000000    -4.040000000    -4.930000000
C    -2.841000000    -3.028000000    -5.782000000
C    -1.628000000    -2.449000000    -5.865000000
H    -0.837000000    -2.859000000    -5.242000000
C    -3.990000000    -2.543000000    -6.456000000
H    -4.923000000    -3.084000000    -6.319000000
C    -3.853000000    -1.440000000    -7.226000000
H    -4.721000000    -0.993000000    -7.704000000
C    -2.617000000    -0.831000000    -7.357000000
H    -2.589000000     0.114000000    -7.893000000
C    -1.495000000    -1.354000000    -6.707000000
O    -0.327000000    -0.710000000    -6.953000000
C     0.215000000     0.017000000    -5.921000000
C     1.587000000     0.036000000    -5.856000000
H     2.228000000    -0.637000000    -6.422000000
C     2.219000000     0.775000000    -4.914000000
O     3.575000000     0.515000000    -4.735000000
C     4.432000000     1.373000000    -4.121000000
C     5.099000000     0.965000000    -2.981000000
H     4.874000000    -0.020000000    -2.581000000
C     4.763000000     2.615000000    -4.602000000
H     4.257000000     2.994000000    -5.487000000
C     5.720000000     3.440000000    -3.979000000
H     5.818000000     4.464000000    -4.329000000
C     6.244000000     3.046000000    -2.757000000
H     6.927000000     3.669000000    -2.184000000
C     6.049000000     1.762000000    -2.292000000
O     6.588000000     1.325000000    -1.143000000
C     6.057000000     1.574000000     0.093000000
C     6.699000000     0.954000000     1.175000000
H     7.623000000     0.399000000     1.040000000
C     6.208000000     1.101000000     2.427000000
O     6.880000000     0.473000000     3.511000000
C     6.233000000    -0.491000000     4.260000000
C     6.496000000    -0.529000000     5.652000000
H     7.239000000     0.138000000     6.081000000
C     5.793000000    -1.523000000     6.365000000
H     5.922000000    -1.572000000     7.443000000
C     4.949000000    -2.336000000     5.706000000
H     4.303000000    -3.011000000     6.262000000
C     4.681000000    -2.277000000     4.354000000
C     5.307000000    -1.329000000     3.598000000
H     5.106000000    -1.137000000     2.547000000
C     2.624000000    -0.908000000    -0.977000000
H     3.657000000    -0.991000000    -0.649000000
C     1.645000000    -0.227000000    -0.244000000
H     1.809000000     0.271000000     0.709000000
C     0.308000000    -0.291000000    -0.664000000
H    -0.471000000     0.197000000    -0.060000000
C    -0.033000000    -0.962000000    -1.824000000
H    -1.065000000    -1.027000000    -2.160000000
C     0.933000000    -1.565000000    -2.619000000
H     0.735000000    -2.077000000    -3.557000000
C     2.264000000    -1.661000000    -2.098000000
C     3.300000000    -2.522000000    -2.825000000
O     2.910000000    -3.216000000    -3.768000000
O     4.439000000    -2.683000000    -2.408000000
O     5.933000000    -8.042000000    -2.051000000
H     5.615000000    -7.150000000    -2.187000000
H     5.391000000    -8.581000000    -2.627000000
O    -0.337000000    -5.489000000    -4.393000000
H    -1.267000000    -5.326000000    -4.237000000
H    -0.316000000    -6.320000000    -4.868000000
O     4.171000000    -2.324000000    -8.776000000
H     3.225000000    -2.285000000    -8.920000000
H     4.269000000    -2.292000000    -7.824000000
O     3.698000000    -6.200000000     0.715000000
H     3.124000000    -5.434000000     0.685000000
H     4.467000000    -5.905000000     1.202000000
O     1.438000000    -4.055000000    -6.206000000
H     2.060000000    -4.047000000    -5.479000000
H     0.585000000    -4.177000000    -5.791000000
O     7.028000000    -1.693000000    -1.327000000
H     6.107000000    -1.952000000    -1.350000000
H     7.039000000    -0.813000000    -1.705000000
O     5.414000000    -0.057000000    -7.181000000
H     6.313000000    -0.144000000    -6.862000000
H     4.871000000    -0.358000000    -6.453000000
O     1.727000000    -5.331000000    -2.928000000
H     2.044000000    -4.489000000    -3.256000000
H     0.937000000    -5.504000000    -3.441000000
O     5.339000000    -5.322000000    -2.889000000
H     4.970000000    -5.765000000    -3.653000000
H     4.935000000    -4.454000000    -2.897000000
O     2.549000000    -6.315000000    -7.574000000
H     1.664000000    -6.533000000    -7.867000000
H     2.432000000    -5.555000000    -7.004000000
O     7.128000000    -3.671000000    -7.063000000
H     7.687000000    -3.620000000    -6.288000000
H     6.380000000    -3.110000000    -6.857000000
O     6.735000000    -2.363000000    -4.156000000
H     6.243000000    -2.489000000    -3.345000000
H     7.383000000    -1.693000000    -3.941000000
O     9.132000000    -3.338000000    -1.958000000
H     8.399000000    -2.733000000    -1.846000000
H     9.824000000    -2.981000000    -1.402000000
O     5.010000000    -3.117000000     0.084000000
H     4.776000000    -3.103000000    -0.844000000
H     4.492000000    -3.834000000     0.450000000
O     4.443000000    -2.450000000    -5.854000000
H     5.246000000    -2.402000000    -5.336000000
H     3.750000000    -2.595000000    -5.210000000
O     4.516000000    -7.354000000    -4.485000000
H     3.709000000    -7.789000000    -4.760000000
H     5.022000000    -7.257000000    -5.291000000
O     1.841000000    -4.343000000    -0.397000000
H     1.232000000    -3.606000000    -0.425000000
H     1.880000000    -4.658000000    -1.300000000
O     2.930000000    -7.650000000    -1.601000000
H     3.347000000    -7.211000000    -0.859000000
H     3.003000000    -7.023000000    -2.320000000
O     7.284000000    -5.595000000    -0.964000000
H     7.947000000    -4.921000000    -1.114000000
H     6.583000000    -5.384000000    -1.581000000
