215
-1432.14378
C    -3.867000000    -2.923000000    -2.645000000
H    -4.323000000    -2.047000000    -3.097000000
C    -3.571000000    -2.902000000    -1.293000000
C    -2.874000000    -3.935000000    -0.678000000
H    -2.688000000    -3.878000000     0.392000000
C    -3.762000000    -1.666000000    -0.450000000
O    -4.715000000    -0.773000000    -1.051000000
H    -2.846000000    -1.108000000    -0.206000000
O    -4.267000000    -2.010000000     0.890000000
C    -3.841000000    -1.259000000     1.945000000
C    -2.804000000    -1.827000000     2.684000000
H    -2.392000000    -2.805000000     2.452000000
C    -2.080000000    -1.086000000     3.652000000
O    -0.975000000    -1.605000000     4.255000000
C    -2.528000000     0.216000000     3.949000000
C    -1.778000000     1.019000000     4.983000000
H    -2.426000000     1.784000000     5.416000000
C    -0.572000000     1.797000000     4.415000000
C    -0.749000000     3.006000000     3.792000000
H    -1.690000000     3.501000000     3.564000000
H    -1.585000000     0.331000000     5.808000000
C    -3.457000000     0.836000000     3.134000000
H    -3.671000000     1.901000000     3.180000000
C    -4.139000000     0.102000000     2.168000000
C    -5.108000000     0.822000000     1.335000000
H    -5.495000000     1.699000000     1.857000000
H    -5.949000000     0.228000000     0.972000000
C    -4.437000000     1.359000000     0.049000000
C    -4.076000000     2.741000000    -0.064000000
H    -4.169000000     3.444000000     0.760000000
C    -4.344000000     0.533000000    -1.105000000
C    -3.879000000     1.032000000    -2.300000000
H    -3.670000000     0.336000000    -3.109000000
C    -3.557000000     2.373000000    -2.397000000
O    -2.746000000     2.636000000    -3.496000000
C    -1.326000000     2.500000000    -3.219000000
C    -0.556000000     1.631000000    -4.245000000
C     0.820000000     1.657000000    -4.317000000
H     1.347000000     2.448000000    -3.789000000
C    -1.256000000     0.734000000    -5.101000000
H    -2.333000000     0.883000000    -5.123000000
O    -0.800000000     3.756000000    -2.933000000
H    -1.317000000     2.070000000    -2.206000000
C    -3.654000000     3.261000000    -1.316000000
C    -3.052000000     4.646000000    -1.317000000
H    -3.591000000     5.294000000    -0.622000000
H    -3.117000000     5.120000000    -2.299000000
C    -1.629000000     4.570000000    -0.799000000
C    -1.389000000     4.781000000     0.504000000
H    -2.181000000     4.953000000     1.228000000
C    -0.571000000     4.219000000    -1.629000000
C     0.711000000     4.154000000    -1.099000000
H     1.543000000     3.983000000    -1.777000000
C     1.021000000     4.455000000     0.197000000
O     2.321000000     4.379000000     0.705000000
C     2.774000000     3.227000000     1.461000000
C     4.156000000     2.717000000     1.082000000
C     4.647000000     3.015000000    -0.172000000
H     4.034000000     3.676000000    -0.780000000
C     4.852000000     1.823000000     1.863000000
H     4.559000000     1.783000000     2.909000000
O     2.705000000     3.586000000     2.832000000
H     2.050000000     2.442000000     1.199000000
C    -0.095000000     4.722000000     1.033000000
C     0.090000000     4.951000000     2.532000000
H    -0.807000000     5.427000000     2.935000000
H     0.916000000     5.571000000     2.887000000
C     0.309000000     3.629000000     3.194000000
C     1.630000000     3.050000000     3.428000000
C     1.770000000     1.813000000     4.104000000
H     2.705000000     1.274000000     4.226000000
C     0.677000000     1.224000000     4.611000000
O     0.837000000    -0.125000000     4.879000000
C     0.342000000    -1.129000000     3.968000000
H     0.302000000    -0.737000000     2.941000000
C     1.245000000    -2.336000000     3.864000000
C     0.802000000    -3.549000000     3.205000000
H    -0.129000000    -3.468000000     2.651000000
C     2.505000000    -2.328000000     4.448000000
H     2.918000000    -1.384000000     4.792000000
C     3.319000000    -3.451000000     4.390000000
O     4.608000000    -3.399000000     4.805000000
C     2.793000000    -4.662000000     3.897000000
H     3.360000000    -5.584000000     3.996000000
C     1.545000000    -4.696000000     3.226000000
O     1.111000000    -5.919000000     2.783000000
C    -0.171000000    -6.084000000     2.309000000
C    -0.456000000    -6.044000000     0.928000000
H     0.303000000    -5.861000000     0.171000000
C    -1.209000000    -6.296000000     3.261000000
H    -0.997000000    -6.332000000     4.326000000
C    -2.556000000    -6.457000000     2.852000000
H    -3.431000000    -6.493000000     3.496000000
C    -2.759000000    -6.459000000     1.475000000
H    -3.757000000    -6.562000000     1.057000000
C    -1.736000000    -6.237000000     0.560000000
O    -2.157000000    -6.168000000    -0.814000000
C    -2.743000000    -5.082000000    -1.400000000
C    -3.108000000    -5.130000000    -2.703000000
H    -3.175000000    -6.116000000    -3.157000000
C    -3.559000000    -4.023000000    -3.416000000
O    -3.929000000    -4.126000000    -4.724000000
C    -3.916000000    -3.041000000    -5.576000000
C    -2.759000000    -2.390000000    -5.760000000
H    -1.931000000    -2.566000000    -5.078000000
C    -5.008000000    -2.848000000    -6.463000000
H    -5.831000000    -3.553000000    -6.372000000
C    -4.936000000    -1.876000000    -7.399000000
H    -5.747000000    -1.600000000    -8.068000000
C    -3.768000000    -1.122000000    -7.519000000
H    -3.693000000    -0.330000000    -8.261000000
C    -2.635000000    -1.347000000    -6.698000000
O    -1.386000000    -0.840000000    -6.925000000
C    -0.618000000    -0.108000000    -6.057000000
C     0.806000000    -0.114000000    -5.970000000
H     1.368000000    -0.776000000    -6.624000000
C     1.474000000     0.837000000    -5.203000000
O     2.869000000     0.851000000    -5.186000000
C     3.592000000     1.859000000    -4.684000000
C     4.563000000     1.700000000    -3.675000000
H     4.785000000     0.736000000    -3.224000000
C     3.490000000     3.155000000    -5.272000000
H     3.010000000     3.277000000    -6.240000000
C     4.224000000     4.282000000    -4.747000000
H     4.264000000     5.280000000    -5.174000000
C     5.045000000     4.031000000    -3.630000000
H     5.692000000     4.859000000    -3.350000000
C     5.207000000     2.787000000    -3.097000000
O     6.127000000     2.529000000    -2.034000000
C     5.712000000     2.310000000    -0.706000000
C     6.402000000     1.397000000     0.095000000
H     7.276000000     0.958000000    -0.379000000
C     5.977000000     1.091000000     1.368000000
O     6.659000000     0.195000000     2.149000000
C     6.232000000    -0.400000000     3.361000000
C     6.599000000     0.285000000     4.552000000
H     6.941000000     1.309000000     4.424000000
C     6.314000000    -0.324000000     5.742000000
H     6.688000000     0.215000000     6.609000000
C     5.820000000    -1.631000000     5.768000000
H     5.537000000    -2.080000000     6.716000000
C     5.447000000    -2.268000000     4.643000000
C     5.737000000    -1.677000000     3.416000000
H     5.359000000    -2.122000000     2.499000000
C     2.555000000    -0.772000000    -0.356000000
H     3.611000000    -0.865000000    -0.119000000
C     1.838000000     0.039000000     0.423000000
H     2.189000000     0.465000000     1.360000000
C     0.494000000     0.252000000     0.096000000
H    -0.138000000     0.948000000     0.642000000
C     0.016000000    -0.163000000    -1.137000000
H    -1.025000000     0.018000000    -1.393000000
C     0.788000000    -0.975000000    -1.952000000
H     0.437000000    -1.319000000    -2.921000000
C     2.089000000    -1.338000000    -1.556000000
C     2.987000000    -2.217000000    -2.465000000
O     2.569000000    -3.164000000    -3.056000000
O     4.156000000    -2.197000000    -2.177000000
O     5.289000000    -7.775000000    -2.365000000
H     5.236000000    -8.475000000    -3.016000000
H     4.941000000    -7.004000000    -2.814000000
O    -0.468000000    -4.773000000    -3.913000000
H    -1.420000000    -4.834000000    -3.988000000
H    -0.139000000    -5.492000000    -4.453000000
O     3.651000000    -3.016000000    -7.383000000
H     2.923000000    -3.125000000    -6.770000000
H     4.013000000    -2.155000000    -7.173000000
O     1.706000000    -3.151000000    -5.543000000
H     2.264000000    -3.064000000    -4.771000000
H     1.063000000    -3.817000000    -5.300000000
O     7.699000000    -2.086000000    -1.187000000
H     6.875000000    -1.948000000    -0.721000000
H     8.325000000    -2.322000000    -0.503000000
O     4.666000000    -0.470000000    -6.836000000
H     5.609000000    -0.564000000    -6.970000000
H     4.521000000    -0.760000000    -5.936000000
O     0.844000000    -4.392000000    -1.601000000
H     1.437000000    -3.826000000    -2.096000000
H     0.117000000    -4.561000000    -2.201000000
O     6.967000000    -5.469000000     0.583000000
H     7.532000000    -4.859000000     1.057000000
H     6.194000000    -4.952000000     0.356000000
O     4.742000000    -5.167000000    -3.347000000
H     4.726000000    -5.347000000    -4.287000000
H     4.142000000    -4.429000000    -3.234000000
O     5.564000000    -4.674000000    -6.261000000
H     6.297000000    -4.088000000    -6.072000000
H     4.909000000    -4.112000000    -6.675000000
O     8.073000000    -3.451000000    -5.619000000
H     8.125000000    -3.729000000    -4.705000000
H     8.883000000    -2.961000000    -5.767000000
O     5.198000000    -3.460000000    -0.003000000
H     5.034000000    -3.086000000    -0.869000000
H     4.348000000    -3.429000000     0.436000000
O     5.163000000    -1.814000000    -4.585000000
H     5.728000000    -1.043000000    -4.540000000
H     4.852000000    -1.937000000    -3.688000000
O     2.887000000     1.280000000    -8.143000000
H     3.263000000     0.874000000    -8.924000000
H     3.388000000     0.909000000    -7.416000000
O     7.204000000    -0.275000000    -3.957000000
H     7.552000000     0.611000000    -3.863000000
H     7.699000000    -0.796000000    -3.325000000
O     0.307000000    -2.781000000    -7.903000000
H    -0.377000000    -2.128000000    -7.756000000
H     0.823000000    -2.773000000    -7.097000000
O     2.472000000    -3.540000000     0.460000000
H     2.069000000    -2.718000000     0.739000000
H     1.888000000    -3.874000000    -0.221000000
O     2.009000000    -6.756000000    -2.073000000
H     2.962000000    -6.670000000    -2.106000000
H     1.695000000    -5.871000000    -1.889000000
O     7.627000000    -4.657000000    -2.584000000
H     7.505000000    -3.983000000    -1.916000000
H     6.739000000    -4.906000000    -2.839000000
