215
-1443.94436
C    -4.423000000    -2.617000000    -0.685000000
H    -4.791000000    -1.914000000    -1.428000000
C    -4.119000000    -2.259000000     0.645000000
C    -3.714000000    -3.243000000     1.512000000
H    -3.565000000    -2.991000000     2.559000000
C    -3.962000000    -0.779000000     1.039000000
O    -4.667000000     0.051000000     0.108000000
H    -2.884000000    -0.563000000     0.992000000
O    -4.380000000    -0.577000000     2.373000000
C    -3.477000000     0.210000000     3.075000000
C    -2.504000000    -0.363000000     3.928000000
H    -2.368000000    -1.427000000     4.102000000
C    -1.432000000     0.425000000     4.381000000
O    -0.332000000    -0.170000000     4.918000000
C    -1.481000000     1.787000000     4.180000000
C    -0.372000000     2.699000000     4.698000000
H    -0.836000000     3.666000000     4.903000000
C     0.787000000     2.812000000     3.637000000
C     0.729000000     3.963000000     2.785000000
H     0.016000000     4.771000000     2.921000000
H     0.113000000     2.263000000     5.575000000
C    -2.491000000     2.360000000     3.446000000
H    -2.408000000     3.413000000     3.188000000
C    -3.475000000     1.583000000     2.842000000
C    -4.423000000     2.334000000     1.906000000
H    -4.561000000     3.343000000     2.300000000
H    -5.435000000     1.925000000     1.868000000
C    -3.952000000     2.332000000     0.456000000
C    -3.407000000     3.510000000    -0.020000000
H    -3.280000000     4.392000000     0.603000000
C    -4.220000000     1.255000000    -0.382000000
C    -3.961000000     1.386000000    -1.772000000
H    -4.083000000     0.578000000    -2.489000000
C    -3.433000000     2.612000000    -2.242000000
O    -2.839000000     2.554000000    -3.475000000
C    -1.427000000     2.143000000    -3.475000000
C    -1.240000000     0.874000000    -4.311000000
C     0.061000000     0.344000000    -4.414000000
H     0.932000000     0.823000000    -3.976000000
C    -2.300000000     0.220000000    -4.930000000
H    -3.237000000     0.651000000    -4.586000000
O    -0.522000000     3.238000000    -3.819000000
H    -1.103000000     1.878000000    -2.458000000
C    -3.164000000     3.664000000    -1.361000000
C    -2.388000000     4.895000000    -1.896000000
H    -2.634000000     5.701000000    -1.201000000
H    -2.748000000     5.126000000    -2.900000000
C    -0.840000000     4.603000000    -1.744000000
C    -0.209000000     5.118000000    -0.606000000
H    -0.795000000     5.731000000     0.073000000
C    -0.031000000     3.942000000    -2.752000000
C     1.302000000     3.757000000    -2.508000000
H     1.843000000     3.114000000    -3.198000000
C     1.925000000     4.167000000    -1.319000000
O     3.213000000     3.715000000    -1.224000000
C     3.537000000     2.739000000    -0.217000000
C     4.643000000     1.824000000    -0.820000000
C     4.621000000     1.485000000    -2.154000000
H     3.868000000     1.869000000    -2.838000000
C     5.494000000     1.197000000     0.082000000
H     5.534000000     1.557000000     1.107000000
O     3.858000000     3.370000000     1.023000000
H     2.580000000     2.198000000    -0.231000000
C     1.146000000     4.884000000    -0.374000000
C     1.789000000     5.303000000     0.861000000
H     1.179000000     6.088000000     1.313000000
H     2.738000000     5.786000000     0.617000000
C     1.761000000     4.169000000     1.895000000
C     2.868000000     3.308000000     2.006000000
C     2.935000000     2.170000000     2.848000000
H     3.797000000     1.513000000     2.939000000
C     1.837000000     1.945000000     3.650000000
O     1.791000000     0.756000000     4.318000000
C     0.747000000    -0.226000000     3.993000000
H     0.323000000    -0.019000000     3.000000000
C     1.321000000    -1.649000000     3.862000000
C     0.712000000    -2.674000000     4.519000000
H    -0.154000000    -2.504000000     5.155000000
C     2.533000000    -1.862000000     3.230000000
H     3.088000000    -1.079000000     2.719000000
C     3.082000000    -3.186000000     3.174000000
O     4.280000000    -3.317000000     2.553000000
C     2.400000000    -4.209000000     3.798000000
H     2.877000000    -5.181000000     3.706000000
C     1.131000000    -4.002000000     4.356000000
O     0.386000000    -4.971000000     4.825000000
C    -0.983000000    -5.086000000     4.636000000
C    -1.503000000    -5.310000000     3.397000000
H    -0.843000000    -5.545000000     2.566000000
C    -1.777000000    -4.788000000     5.749000000
H    -1.326000000    -4.600000000     6.721000000
C    -3.183000000    -4.730000000     5.643000000
H    -3.787000000    -4.378000000     6.476000000
C    -3.743000000    -4.944000000     4.390000000
H    -4.824000000    -4.870000000     4.303000000
C    -2.910000000    -5.292000000     3.310000000
O    -3.448000000    -5.593000000     2.106000000
C    -3.806000000    -4.614000000     1.127000000
C    -3.822000000    -4.986000000    -0.229000000
H    -3.711000000    -6.042000000    -0.461000000
C    -4.224000000    -3.957000000    -1.111000000
O    -4.421000000    -4.300000000    -2.497000000
C    -4.845000000    -3.399000000    -3.466000000
C    -3.835000000    -2.994000000    -4.435000000
H    -2.862000000    -3.468000000    -4.332000000
C    -6.156000000    -2.784000000    -3.589000000
H    -6.957000000    -3.123000000    -2.937000000
C    -6.418000000    -1.777000000    -4.551000000
H    -7.326000000    -1.183000000    -4.626000000
C    -5.418000000    -1.328000000    -5.448000000
H    -5.638000000    -0.528000000    -6.151000000
C    -4.165000000    -1.998000000    -5.335000000
O    -3.215000000    -1.614000000    -6.228000000
C    -2.121000000    -0.927000000    -5.692000000
C    -0.818000000    -1.341000000    -5.956000000
H    -0.595000000    -2.167000000    -6.626000000
C     0.231000000    -0.751000000    -5.297000000
O     1.485000000    -1.202000000    -5.374000000
C     2.586000000    -0.547000000    -5.605000000
C     3.589000000    -0.518000000    -4.665000000
H     3.496000000    -1.052000000    -3.723000000
C     2.645000000     0.397000000    -6.724000000
H     1.856000000     0.454000000    -7.469000000
C     3.770000000     1.214000000    -6.811000000
H     3.746000000     2.041000000    -7.517000000
C     4.800000000     1.171000000    -5.858000000
H     5.625000000     1.879000000    -5.892000000
C     4.643000000     0.336000000    -4.786000000
O     5.690000000     0.329000000    -3.938000000
C     5.656000000     0.656000000    -2.633000000
C     6.531000000     0.080000000    -1.771000000
H     7.099000000    -0.747000000    -2.192000000
C     6.444000000     0.349000000    -0.393000000
O     7.277000000    -0.212000000     0.481000000
C     6.878000000    -0.963000000     1.582000000
C     7.558000000    -0.811000000     2.814000000
H     8.300000000    -0.019000000     2.877000000
C     7.152000000    -1.540000000     3.930000000
H     7.778000000    -1.479000000     4.817000000
C     5.998000000    -2.340000000     3.735000000
H     5.798000000    -3.090000000     4.496000000
C     5.264000000    -2.369000000     2.563000000
C     5.735000000    -1.779000000     1.415000000
H     5.379000000    -2.177000000     0.468000000
C     1.759000000    -1.442000000    -0.975000000
H     2.821000000    -1.670000000    -1.025000000
C     1.288000000    -0.345000000    -0.236000000
H     1.961000000     0.328000000     0.290000000
C    -0.107000000    -0.178000000    -0.171000000
H    -0.554000000     0.468000000     0.634000000
C    -0.984000000    -0.921000000    -0.939000000
H    -2.061000000    -0.838000000    -0.821000000
C    -0.480000000    -1.857000000    -1.807000000
H    -1.233000000    -2.419000000    -2.353000000
C     0.858000000    -2.154000000    -1.855000000
C     1.408000000    -3.211000000    -2.760000000
O     0.624000000    -3.816000000    -3.466000000
O     2.572000000    -3.542000000    -2.708000000
O     3.093000000    -2.835000000    -7.983000000
H     3.011000000    -3.115000000    -7.071000000
H     2.194000000    -2.657000000    -8.260000000
O    -1.532000000    -7.585000000     0.665000000
H    -1.120000000    -6.725000000     0.585000000
H    -2.451000000    -7.393000000     0.855000000
O     1.962000000    -7.008000000    -6.588000000
H     1.936000000    -7.802000000    -6.054000000
H     2.880000000    -6.925000000    -6.849000000
O     4.524000000    -5.340000000    -2.732000000
H     5.204000000    -4.679000000    -2.606000000
H     3.703000000    -4.848000000    -2.698000000
O     0.439000000    -9.262000000    -3.297000000
H     0.644000000    -8.353000000    -3.079000000
H    -0.276000000    -9.495000000    -2.705000000
O    -1.504000000    -5.273000000    -2.669000000
H    -1.173000000    -5.464000000    -1.791000000
H    -0.841000000    -4.701000000    -3.055000000
O     1.296000000    -6.424000000    -3.288000000
H     1.240000000    -6.535000000    -4.237000000
H     1.262000000    -5.477000000    -3.156000000
O     2.725000000    -4.714000000    -0.105000000
H     2.939000000    -4.184000000    -0.873000000
H     3.476000000    -4.605000000     0.478000000
O     3.094000000    -4.152000000    -5.493000000
H     3.901000000    -4.055000000    -4.988000000
H     2.394000000    -4.024000000    -4.853000000
O     2.072000000    -7.413000000    -0.834000000
H     1.835000000    -7.228000000    -1.743000000
H     2.306000000    -6.560000000    -0.469000000
O    -3.736000000    -7.067000000    -3.143000000
H    -3.171000000    -6.311000000    -2.986000000
H    -3.372000000    -7.480000000    -3.926000000
O     6.787000000    -3.457000000    -1.710000000
H     7.712000000    -3.265000000    -1.558000000
H     6.682000000    -4.366000000    -1.428000000
O     6.626000000    -4.915000000    -5.765000000
H     6.175000000    -5.123000000    -4.947000000
H     6.655000000    -3.958000000    -5.785000000
O    -2.403000000    -6.130000000    -5.977000000
H    -1.584000000    -5.660000000    -5.823000000
H    -3.042000000    -5.443000000    -6.164000000
O     6.030000000    -2.901000000    -4.162000000
H     5.881000000    -1.979000000    -4.370000000
H     6.538000000    -2.885000000    -3.351000000
O     4.488000000    -6.220000000    -6.947000000
H     5.394000000    -5.914000000    -6.936000000
H     3.974000000    -5.458000000    -6.679000000
O     5.356000000    -7.876000000    -3.385000000
H     4.874000000    -7.075000000    -3.181000000
H     5.194000000    -8.450000000    -2.637000000
O    -0.004000000    -5.035000000    -5.866000000
H     0.932000000    -5.193000000    -5.985000000
H    -0.064000000    -4.567000000    -5.033000000
O    -0.214000000    -5.195000000     0.246000000
H    -0.545000000    -4.315000000     0.425000000
H     0.737000000    -5.092000000     0.215000000
