215
-1427.74137
C     2.451000000     2.689000000    -3.177000000
H     2.235000000     1.756000000    -3.692000000
C     3.236000000     2.732000000    -2.021000000
C     3.245000000     3.925000000    -1.253000000
H     3.766000000     3.922000000    -0.299000000
C     3.814000000     1.427000000    -1.436000000
O     4.352000000     0.510000000    -2.455000000
H     2.939000000     0.881000000    -1.054000000
O     4.676000000     1.636000000    -0.367000000
C     4.509000000     0.976000000     0.831000000
C     3.852000000     1.641000000     1.891000000
H     3.592000000     2.696000000     1.867000000
C     3.515000000     0.908000000     3.013000000
O     2.811000000     1.510000000     3.998000000
C     3.736000000    -0.492000000     3.069000000
C     3.294000000    -1.279000000     4.303000000
H     4.077000000    -2.033000000     4.413000000
C     1.859000000    -1.713000000     4.245000000
C     1.631000000    -3.015000000     3.786000000
H     2.518000000    -3.614000000     3.596000000
H     3.450000000    -0.617000000     5.157000000
C     4.218000000    -1.185000000     1.947000000
H     4.401000000    -2.256000000     1.896000000
C     4.671000000    -0.443000000     0.902000000
C     5.471000000    -1.155000000    -0.187000000
H     5.934000000    -2.041000000     0.253000000
H     6.304000000    -0.539000000    -0.532000000
C     4.554000000    -1.681000000    -1.340000000
C     3.993000000    -3.006000000    -1.240000000
H     4.186000000    -3.555000000    -0.322000000
C     4.109000000    -0.881000000    -2.443000000
C     3.110000000    -1.382000000    -3.355000000
H     2.815000000    -0.621000000    -4.073000000
C     2.582000000    -2.601000000    -3.196000000
O     1.518000000    -2.950000000    -3.906000000
C     0.152000000    -2.817000000    -3.373000000
C    -0.862000000    -2.100000000    -4.286000000
C    -2.289000000    -2.103000000    -4.043000000
H    -2.678000000    -2.551000000    -3.132000000
C    -0.381000000    -1.541000000    -5.447000000
H     0.658000000    -1.492000000    -5.763000000
O    -0.413000000    -4.046000000    -2.900000000
H     0.216000000    -2.136000000    -2.512000000
C     2.989000000    -3.447000000    -2.116000000
C     2.298000000    -4.815000000    -1.786000000
H     2.950000000    -5.453000000    -1.185000000
H     2.103000000    -5.408000000    -2.681000000
C     1.032000000    -4.612000000    -0.928000000
C     1.022000000    -4.773000000     0.456000000
H     1.981000000    -4.913000000     0.948000000
C    -0.218000000    -4.315000000    -1.514000000
C    -1.337000000    -4.266000000    -0.738000000
H    -2.229000000    -3.934000000    -1.263000000
C    -1.329000000    -4.447000000     0.625000000
O    -2.440000000    -4.148000000     1.379000000
C    -2.470000000    -2.833000000     1.934000000
C    -3.872000000    -2.246000000     1.833000000
C    -4.712000000    -2.596000000     0.752000000
H    -4.421000000    -3.242000000    -0.073000000
C    -4.389000000    -1.364000000     2.776000000
H    -3.789000000    -1.048000000     3.626000000
O    -2.110000000    -2.889000000     3.336000000
H    -1.713000000    -2.271000000     1.368000000
C    -0.116000000    -4.665000000     1.245000000
C    -0.013000000    -4.820000000     2.742000000
H     0.691000000    -5.579000000     3.090000000
H    -0.990000000    -5.084000000     3.151000000
C     0.341000000    -3.480000000     3.487000000
C    -0.752000000    -2.665000000     3.708000000
C    -0.494000000    -1.407000000     4.254000000
H    -1.366000000    -0.782000000     4.431000000
C     0.754000000    -0.899000000     4.569000000
O     0.962000000     0.406000000     5.003000000
C     1.338000000     1.331000000     3.931000000
H     1.054000000     0.769000000     3.030000000
C     0.583000000     2.676000000     4.054000000
C     1.183000000     3.863000000     3.641000000
H     2.199000000     3.771000000     3.265000000
C    -0.808000000     2.621000000     4.240000000
H    -1.313000000     1.672000000     4.394000000
C    -1.572000000     3.768000000     4.305000000
O    -2.914000000     3.727000000     4.729000000
C    -0.995000000     4.966000000     4.134000000
H    -1.575000000     5.885000000     4.100000000
C     0.338000000     5.034000000     3.674000000
O     0.852000000     6.292000000     3.328000000
C     1.906000000     6.415000000     2.501000000
C     1.743000000     6.279000000     1.128000000
H     0.816000000     6.083000000     0.596000000
C     3.186000000     6.739000000     2.948000000
H     3.293000000     6.861000000     4.023000000
C     4.307000000     6.718000000     2.065000000
H     5.280000000     6.903000000     2.511000000
C     4.063000000     6.568000000     0.675000000
H     4.891000000     6.780000000     0.004000000
C     2.810000000     6.433000000     0.255000000
O     2.614000000     6.374000000    -1.032000000
C     2.539000000     5.121000000    -1.698000000
C     1.923000000     5.075000000    -2.962000000
H     1.403000000     5.951000000    -3.343000000
C     1.880000000     3.863000000    -3.718000000
O     1.207000000     3.866000000    -4.936000000
C     1.265000000     2.819000000    -5.857000000
C     0.162000000     2.008000000    -6.164000000
H    -0.785000000     2.207000000    -5.669000000
C     2.450000000     2.593000000    -6.550000000
H     3.282000000     3.268000000    -6.371000000
C     2.612000000     1.576000000    -7.532000000
H     3.586000000     1.361000000    -7.963000000
C     1.548000000     0.714000000    -7.728000000
H     1.623000000    -0.149000000    -8.385000000
C     0.378000000     0.892000000    -7.023000000
O    -0.739000000     0.018000000    -7.240000000
C    -1.296000000    -0.835000000    -6.240000000
C    -2.628000000    -0.727000000    -5.972000000
H    -3.199000000    -0.287000000    -6.785000000
C    -3.191000000    -1.395000000    -4.892000000
O    -4.543000000    -1.414000000    -4.636000000
C    -5.188000000    -2.289000000    -3.854000000
C    -5.799000000    -1.841000000    -2.696000000
H    -5.955000000    -0.780000000    -2.516000000
C    -5.289000000    -3.674000000    -4.197000000
H    -4.946000000    -4.080000000    -5.145000000
C    -5.900000000    -4.594000000    -3.333000000
H    -5.864000000    -5.654000000    -3.570000000
C    -6.384000000    -4.128000000    -2.096000000
H    -6.701000000    -4.874000000    -1.372000000
C    -6.271000000    -2.725000000    -1.761000000
O    -6.695000000    -2.181000000    -0.556000000
C    -5.913000000    -1.969000000     0.576000000
C    -6.387000000    -1.016000000     1.535000000
H    -7.311000000    -0.485000000     1.318000000
C    -5.616000000    -0.759000000     2.619000000
O    -6.024000000     0.205000000     3.521000000
C    -5.257000000     0.905000000     4.481000000
C    -5.584000000     0.744000000     5.840000000
H    -6.405000000     0.078000000     6.096000000
C    -4.914000000     1.497000000     6.798000000
H    -5.258000000     1.438000000     7.827000000
C    -3.826000000     2.281000000     6.424000000
H    -3.394000000     2.844000000     7.247000000
C    -3.642000000     2.561000000     5.063000000
C    -4.308000000     1.873000000     4.072000000
H    -4.174000000     2.183000000     3.038000000
C    -2.459000000     0.109000000    -0.569000000
H    -3.372000000    -0.180000000    -1.083000000
C    -1.285000000    -0.645000000    -0.731000000
H    -1.197000000    -1.579000000    -1.280000000
C    -0.082000000    -0.153000000    -0.210000000
H     0.745000000    -0.793000000    -0.353000000
C    -0.002000000     1.049000000     0.463000000
H     0.927000000     1.484000000     0.823000000
C    -1.214000000     1.821000000     0.593000000
H    -1.178000000     2.769000000     1.123000000
C    -2.434000000     1.315000000     0.034000000
C    -3.676000000     2.124000000     0.108000000
O    -3.649000000     3.154000000     0.704000000
O    -4.600000000     1.947000000    -0.687000000
O    -2.556000000     6.832000000     1.377000000
H    -2.582000000     7.568000000     1.988000000
H    -3.189000000     6.206000000     1.728000000
O    -8.778000000     1.160000000    -0.304000000
H    -9.087000000     0.856000000     0.550000000
H    -9.577000000     1.355000000    -0.792000000
O    -4.909000000     6.582000000    -2.725000000
H    -5.086000000     6.016000000    -1.973000000
H    -5.631000000     7.210000000    -2.726000000
O    -4.392000000     5.081000000     2.589000000
H    -4.234000000     4.487000000     1.855000000
H    -4.462000000     4.507000000     3.351000000
O    -7.182000000     4.806000000    -2.257000000
H    -7.104000000     3.884000000    -2.500000000
H    -6.950000000     4.830000000    -1.329000000
O    -1.143000000     5.396000000    -2.818000000
H    -1.765000000     5.026000000    -2.192000000
H    -0.643000000     4.643000000    -3.133000000
O    -4.064000000     3.308000000    -2.808000000
H    -3.693000000     4.039000000    -2.314000000
H    -4.240000000     2.637000000    -2.148000000
O    -6.579000000     1.419000000    -2.349000000
H    -7.317000000     1.501000000    -1.744000000
H    -5.804000000     1.487000000    -1.791000000
O    -8.263000000     2.521000000     3.963000000
H    -8.486000000     1.766000000     4.507000000
H    -8.343000000     2.200000000     3.064000000
O    -6.946000000     3.174000000     0.346000000
H    -6.101000000     2.793000000     0.107000000
H    -7.590000000     2.529000000     0.054000000
O    -0.831000000     7.521000000    -0.697000000
H    -0.907000000     6.862000000    -1.387000000
H    -1.506000000     7.283000000    -0.062000000
O    -2.319000000     7.853000000    -3.449000000
H    -3.204000000     7.744000000    -3.099000000
H    -1.924000000     6.985000000    -3.376000000
O    -7.469000000     7.252000000     1.015000000
H    -7.620000000     6.488000000     1.572000000
H    -6.962000000     7.852000000     1.563000000
O    -3.067000000     5.165000000    -0.886000000
H    -2.812000000     5.876000000    -0.297000000
H    -3.376000000     4.471000000    -0.304000000
O    -5.773000000     7.034000000     4.049000000
H    -5.449000000     6.641000000     4.859000000
H    -5.598000000     6.375000000     3.376000000
O    -8.253000000     0.678000000    -4.864000000
H    -7.563000000     0.503000000    -4.224000000
H    -8.262000000     1.632000000    -4.952000000
O    -7.515000000     4.798000000     2.503000000
H    -7.789000000     4.109000000     3.108000000
H    -7.045000000     4.335000000     1.809000000
O    -4.529000000     3.753000000    -5.648000000
H    -4.935000000     2.994000000    -6.067000000
H    -4.457000000     3.508000000    -4.726000000
O    -1.061000000     2.253000000    -2.839000000
H    -0.934000000     1.545000000    -2.207000000
H    -1.899000000     2.054000000    -3.256000000
