215
-1449.50581
C    -4.745000000    -2.175000000    -0.609000000
H    -4.860000000    -1.358000000    -1.318000000
C    -4.414000000    -1.817000000     0.748000000
C    -4.222000000    -2.870000000     1.672000000
H    -4.063000000    -2.614000000     2.716000000
C    -4.152000000    -0.379000000     1.154000000
O    -5.072000000     0.618000000     0.590000000
H    -3.115000000    -0.060000000     0.968000000
O    -4.392000000    -0.180000000     2.585000000
C    -3.329000000     0.550000000     3.210000000
C    -2.333000000    -0.181000000     3.787000000
H    -2.403000000    -1.264000000     3.838000000
C    -1.150000000     0.458000000     4.332000000
O    -0.169000000    -0.345000000     4.711000000
C    -1.082000000     1.844000000     4.301000000
C     0.057000000     2.595000000     4.903000000
H    -0.351000000     3.539000000     5.270000000
C     1.200000000     2.806000000     3.889000000
C     1.244000000     3.917000000     3.005000000
H     0.444000000     4.651000000     3.023000000
H     0.534000000     2.127000000     5.767000000
C    -2.053000000     2.519000000     3.618000000
H    -1.931000000     3.595000000     3.527000000
C    -3.169000000     1.899000000     3.027000000
C    -4.224000000     2.754000000     2.407000000
H    -4.143000000     3.788000000     2.750000000
H    -5.212000000     2.401000000     2.710000000
C    -4.041000000     2.767000000     0.864000000
C    -3.275000000     3.748000000     0.275000000
H    -2.971000000     4.626000000     0.839000000
C    -4.527000000     1.777000000     0.070000000
C    -4.203000000     1.752000000    -1.338000000
H    -4.479000000     0.908000000    -1.965000000
C    -3.375000000     2.685000000    -1.903000000
O    -2.988000000     2.524000000    -3.234000000
C    -1.601000000     2.103000000    -3.381000000
C    -1.433000000     1.073000000    -4.450000000
C    -0.196000000     0.629000000    -4.737000000
H     0.657000000     1.118000000    -4.273000000
C    -2.490000000     0.413000000    -5.025000000
H    -3.487000000     0.747000000    -4.747000000
O    -0.728000000     3.261000000    -3.608000000
H    -1.341000000     1.616000000    -2.430000000
C    -2.963000000     3.708000000    -1.096000000
C    -2.137000000     4.811000000    -1.659000000
H    -2.354000000     5.718000000    -1.092000000
H    -2.393000000     5.179000000    -2.655000000
C    -0.650000000     4.512000000    -1.539000000
C    -0.004000000     4.837000000    -0.345000000
H    -0.520000000     5.500000000     0.345000000
C    -0.018000000     3.681000000    -2.459000000
C     1.294000000     3.291000000    -2.261000000
H     1.827000000     2.544000000    -2.843000000
C     1.984000000     3.731000000    -1.159000000
O     3.319000000     3.447000000    -1.113000000
C     3.744000000     2.343000000    -0.313000000
C     4.823000000     1.388000000    -0.979000000
C     4.933000000     1.259000000    -2.326000000
H     4.357000000     1.906000000    -2.982000000
C     5.609000000     0.630000000    -0.152000000
H     5.471000000     0.582000000     0.925000000
O     4.189000000     2.865000000     0.981000000
H     2.847000000     1.738000000    -0.114000000
C     1.382000000     4.528000000    -0.183000000
C     2.187000000     5.086000000     0.982000000
H     1.765000000     6.028000000     1.338000000
H     3.148000000     5.462000000     0.626000000
C     2.254000000     3.988000000     2.054000000
C     3.205000000     2.971000000     1.988000000
C     3.091000000     1.837000000     2.713000000
H     3.631000000     0.906000000     2.559000000
C     2.092000000     1.744000000     3.681000000
O     1.966000000     0.547000000     4.303000000
C     0.977000000    -0.421000000     3.808000000
H     0.682000000    -0.152000000     2.783000000
C     1.551000000    -1.855000000     3.702000000
C     0.600000000    -2.894000000     3.847000000
H    -0.408000000    -2.797000000     4.243000000
C     2.801000000    -2.096000000     3.175000000
H     3.511000000    -1.284000000     3.037000000
C     3.194000000    -3.410000000     2.961000000
O     4.549000000    -3.696000000     2.641000000
C     2.418000000    -4.478000000     3.280000000
H     2.785000000    -5.488000000     3.122000000
C     1.131000000    -4.222000000     3.742000000
O     0.283000000    -5.259000000     4.087000000
C    -1.065000000    -5.175000000     4.235000000
C    -1.949000000    -5.329000000     3.175000000
H    -1.522000000    -5.603000000     2.214000000
C    -1.665000000    -4.979000000     5.516000000
H    -0.948000000    -4.974000000     6.332000000
C    -3.005000000    -4.675000000     5.633000000
H    -3.506000000    -4.431000000     6.566000000
C    -3.833000000    -4.775000000     4.522000000
H    -4.902000000    -4.597000000     4.612000000
C    -3.284000000    -5.054000000     3.308000000
O    -4.062000000    -5.217000000     2.211000000
C    -4.391000000    -4.200000000     1.316000000
C    -4.670000000    -4.539000000     0.019000000
H    -4.748000000    -5.570000000    -0.313000000
C    -4.941000000    -3.497000000    -0.929000000
O    -5.259000000    -3.822000000    -2.237000000
C    -5.465000000    -3.000000000    -3.247000000
C    -4.332000000    -2.632000000    -3.976000000
H    -3.323000000    -2.938000000    -3.714000000
C    -6.686000000    -2.504000000    -3.628000000
H    -7.555000000    -2.773000000    -3.033000000
C    -6.843000000    -1.617000000    -4.678000000
H    -7.848000000    -1.279000000    -4.916000000
C    -5.760000000    -1.235000000    -5.438000000
H    -5.912000000    -0.609000000    -6.314000000
C    -4.465000000    -1.811000000    -5.124000000
O    -3.403000000    -1.701000000    -5.929000000
C    -2.295000000    -0.934000000    -5.557000000
C    -1.074000000    -1.296000000    -5.948000000
H    -0.809000000    -2.274000000    -6.342000000
C    -0.024000000    -0.477000000    -5.579000000
O     1.319000000    -0.842000000    -5.812000000
C     2.409000000    -0.032000000    -5.800000000
C     3.547000000    -0.410000000    -5.159000000
H     3.464000000    -1.281000000    -4.513000000
C     2.473000000     1.018000000    -6.700000000
H     1.653000000     1.150000000    -7.402000000
C     3.662000000     1.748000000    -6.808000000
H     3.686000000     2.507000000    -7.586000000
C     4.773000000     1.455000000    -5.974000000
H     5.654000000     2.091000000    -6.012000000
C     4.677000000     0.394000000    -5.129000000
O     5.760000000     0.195000000    -4.346000000
C     5.798000000     0.360000000    -2.934000000
C     6.676000000    -0.357000000    -2.101000000
H     7.245000000    -1.205000000    -2.475000000
C     6.579000000    -0.225000000    -0.714000000
O     7.478000000    -1.031000000     0.020000000
C     7.174000000    -1.468000000     1.298000000
C     7.843000000    -1.162000000     2.469000000
H     8.667000000    -0.455000000     2.415000000
C     7.418000000    -1.683000000     3.703000000
H     7.921000000    -1.424000000     4.632000000
C     6.275000000    -2.523000000     3.776000000
H     5.842000000    -2.776000000     4.740000000
C     5.584000000    -2.875000000     2.613000000
C     6.010000000    -2.300000000     1.355000000
H     5.371000000    -2.585000000     0.524000000
C     1.331000000    -1.000000000    -0.716000000
H     2.401000000    -1.112000000    -0.564000000
C     0.601000000     0.047000000    -0.076000000
H     1.065000000     0.704000000     0.654000000
C    -0.748000000     0.248000000    -0.406000000
H    -1.366000000     1.018000000     0.043000000
C    -1.413000000    -0.631000000    -1.293000000
H    -2.493000000    -0.554000000    -1.388000000
C    -0.619000000    -1.618000000    -2.007000000
H    -1.087000000    -2.180000000    -2.812000000
C     0.750000000    -1.876000000    -1.747000000
C     1.463000000    -3.037000000    -2.461000000
O     0.747000000    -3.800000000    -3.128000000
O     2.541000000    -3.349000000    -2.050000000
O     3.943000000    -2.442000000    -7.419000000
H     4.670000000    -2.603000000    -6.818000000
H     3.161000000    -2.676000000    -6.919000000
O     4.822000000    -6.265000000    -1.103000000
H     5.588000000    -6.355000000    -0.537000000
H     4.304000000    -5.569000000    -0.697000000
O     0.119000000    -7.725000000    -5.894000000
H     0.226000000    -7.464000000    -4.980000000
H     0.989000000    -7.615000000    -6.278000000
O     4.589000000    -4.353000000    -3.687000000
H     5.502000000    -4.202000000    -3.441000000
H     4.085000000    -4.067000000    -2.925000000
O     2.912000000    -8.918000000    -0.009000000
H     2.636000000    -8.338000000     0.700000000
H     2.343000000    -8.687000000    -0.743000000
O     4.034000000    -8.122000000    -3.058000000
H     4.291000000    -8.938000000    -2.629000000
H     4.420000000    -7.434000000    -2.515000000
O    -1.853000000    -6.072000000    -0.735000000
H    -1.940000000    -5.251000000    -0.252000000
H    -0.997000000    -6.010000000    -1.160000000
O     0.658000000    -5.933000000    -1.679000000
H     0.838000000    -6.134000000    -2.597000000
H     0.778000000    -4.986000000    -1.612000000
O     3.135000000    -4.654000000     0.186000000
H     2.806000000    -4.170000000    -0.571000000
H     3.532000000    -3.985000000     0.744000000
O     2.425000000    -3.497000000    -5.407000000
H     2.967000000    -3.987000000    -4.789000000
H     1.677000000    -3.200000000    -4.888000000
O     1.302000000    -6.757000000     0.845000000
H     0.991000000    -6.776000000    -0.060000000
H     1.861000000    -5.982000000     0.890000000
O     7.170000000    -4.096000000    -3.075000000
H     7.819000000    -4.004000000    -3.772000000
H     7.688000000    -4.183000000    -2.275000000
O     4.607000000    -5.743000000    -5.970000000
H     5.223000000    -5.320000000    -6.568000000
H     4.710000000    -5.268000000    -5.145000000
O     2.647000000    -7.504000000    -6.866000000
H     3.200000000    -6.817000000    -6.494000000
H     3.200000000    -8.285000000    -6.862000000
O     6.049000000    -2.678000000    -5.722000000
H     6.648000000    -1.945000000    -5.860000000
H     6.114000000    -2.867000000    -4.786000000
O     0.887000000    -4.853000000    -7.250000000
H     1.202000000    -5.744000000    -7.400000000
H     1.444000000    -4.517000000    -6.548000000
O     1.704000000    -6.834000000    -3.959000000
H     2.044000000    -6.229000000    -4.618000000
H     2.454000000    -7.382000000    -3.728000000
O    -1.305000000    -4.873000000    -5.080000000
H    -0.684000000    -5.390000000    -5.593000000
H    -0.763000000    -4.427000000    -4.428000000
O    -1.500000000    -3.267000000     0.344000000
H    -0.757000000    -2.766000000     0.009000000
H    -2.167000000    -2.607000000     0.536000000
