215
-1460.26035
C    -4.957000000    -1.826000000    -0.663000000
H    -5.294000000    -0.934000000    -1.184000000
C    -4.198000000    -1.595000000     0.508000000
C    -3.816000000    -2.654000000     1.310000000
H    -3.302000000    -2.545000000     2.262000000
C    -3.920000000    -0.166000000     0.978000000
O    -4.928000000     0.758000000     0.497000000
H    -2.891000000     0.125000000     0.721000000
O    -4.093000000    -0.099000000     2.379000000
C    -3.172000000     0.640000000     3.104000000
C    -2.237000000    -0.064000000     3.853000000
H    -2.140000000    -1.143000000     3.767000000
C    -1.219000000     0.672000000     4.424000000
O    -0.193000000     0.028000000     5.016000000
C    -1.197000000     2.094000000     4.348000000
C    -0.029000000     2.883000000     4.820000000
H    -0.375000000     3.895000000     5.039000000
C     1.154000000     2.932000000     3.847000000
C     1.302000000     3.890000000     2.835000000
H     0.554000000     4.670000000     2.719000000
H     0.193000000     2.423000000     5.785000000
C    -2.219000000     2.814000000     3.642000000
H    -2.249000000     3.883000000     3.446000000
C    -3.263000000     2.083000000     3.024000000
C    -4.279000000     2.891000000     2.193000000
H    -4.302000000     3.946000000     2.475000000
H    -5.316000000     2.577000000     2.325000000
C    -3.969000000     2.893000000     0.707000000
C    -3.249000000     3.936000000     0.123000000
H    -2.854000000     4.734000000     0.747000000
C    -4.408000000     1.816000000    -0.094000000
C    -4.020000000     1.807000000    -1.428000000
H    -4.260000000     0.922000000    -2.012000000
C    -3.333000000     2.829000000    -2.016000000
O    -2.935000000     2.752000000    -3.321000000
C    -1.589000000     2.172000000    -3.491000000
C    -1.590000000     0.981000000    -4.499000000
C    -0.366000000     0.539000000    -4.968000000
H     0.513000000     1.123000000    -4.708000000
C    -2.723000000     0.192000000    -4.691000000
H    -3.691000000     0.417000000    -4.251000000
O    -0.610000000     3.067000000    -3.730000000
H    -1.479000000     1.623000000    -2.544000000
C    -2.818000000     3.880000000    -1.235000000
C    -1.972000000     5.007000000    -1.801000000
H    -2.034000000     5.840000000    -1.097000000
H    -2.337000000     5.437000000    -2.736000000
C    -0.502000000     4.490000000    -1.815000000
C     0.290000000     4.870000000    -0.674000000
H    -0.089000000     5.510000000     0.119000000
C     0.027000000     3.537000000    -2.661000000
C     1.371000000     3.066000000    -2.499000000
H     1.736000000     2.333000000    -3.214000000
C     2.098000000     3.464000000    -1.436000000
O     3.297000000     2.847000000    -1.256000000
C     3.555000000     1.880000000    -0.283000000
C     4.565000000     0.864000000    -0.829000000
C     4.584000000     0.556000000    -2.201000000
H     3.945000000     1.130000000    -2.867000000
C     5.297000000     0.122000000     0.055000000
H     5.249000000     0.139000000     1.141000000
O     3.991000000     2.561000000     0.906000000
H     2.581000000     1.418000000    -0.063000000
C     1.588000000     4.337000000    -0.484000000
C     2.420000000     4.782000000     0.727000000
H     2.075000000     5.788000000     0.974000000
H     3.485000000     4.928000000     0.534000000
C     2.281000000     3.811000000     1.866000000
C     3.116000000     2.735000000     1.944000000
C     3.065000000     1.752000000     2.870000000
H     3.792000000     0.960000000     2.708000000
C     2.124000000     1.909000000     3.851000000
O     1.983000000     0.813000000     4.554000000
C     0.959000000    -0.094000000     4.100000000
H     0.750000000     0.127000000     3.043000000
C     1.628000000    -1.474000000     4.245000000
C     0.765000000    -2.555000000     4.132000000
H    -0.301000000    -2.369000000     4.237000000
C     2.995000000    -1.623000000     4.364000000
H     3.688000000    -0.805000000     4.544000000
C     3.508000000    -2.894000000     4.193000000
O     4.945000000    -3.068000000     4.335000000
C     2.679000000    -3.977000000     3.984000000
H     3.166000000    -4.945000000     3.897000000
C     1.293000000    -3.809000000     3.976000000
O     0.516000000    -4.879000000     3.600000000
C    -0.831000000    -4.970000000     3.789000000
C    -1.588000000    -5.184000000     2.661000000
H    -1.072000000    -5.426000000     1.736000000
C    -1.458000000    -4.663000000     4.982000000
H    -0.814000000    -4.370000000     5.807000000
C    -2.876000000    -4.657000000     5.125000000
H    -3.495000000    -4.505000000     6.005000000
C    -3.587000000    -4.861000000     3.963000000
H    -4.652000000    -4.648000000     4.014000000
C    -2.963000000    -5.040000000     2.746000000
O    -3.659000000    -5.101000000     1.582000000
C    -3.975000000    -3.957000000     0.860000000
C    -4.731000000    -4.175000000    -0.334000000
H    -5.073000000    -5.183000000    -0.556000000
C    -5.244000000    -3.093000000    -1.062000000
O    -6.065000000    -3.340000000    -2.115000000
C    -6.035000000    -2.688000000    -3.307000000
C    -4.819000000    -2.476000000    -3.949000000
H    -3.915000000    -2.764000000    -3.418000000
C    -7.204000000    -2.391000000    -3.971000000
H    -8.136000000    -2.608000000    -3.455000000
C    -7.185000000    -1.739000000    -5.225000000
H    -8.100000000    -1.444000000    -5.732000000
C    -5.976000000    -1.454000000    -5.808000000
H    -6.000000000    -0.729000000    -6.618000000
C    -4.820000000    -1.818000000    -5.172000000
O    -3.665000000    -1.724000000    -5.794000000
C    -2.576000000    -0.972000000    -5.439000000
C    -1.343000000    -1.444000000    -5.917000000
H    -1.419000000    -2.406000000    -6.419000000
C    -0.196000000    -0.677000000    -5.671000000
O     1.041000000    -1.082000000    -6.081000000
C     2.245000000    -0.467000000    -5.991000000
C     3.097000000    -0.854000000    -4.943000000
H     2.961000000    -1.717000000    -4.296000000
C     2.595000000     0.608000000    -6.841000000
H     1.899000000     1.053000000    -7.547000000
C     3.846000000     1.274000000    -6.621000000
H     4.139000000     1.993000000    -7.382000000
C     4.755000000     0.743000000    -5.711000000
H     5.775000000     1.115000000    -5.654000000
C     4.380000000    -0.331000000    -4.918000000
O     5.331000000    -0.769000000    -4.057000000
C     5.363000000    -0.466000000    -2.730000000
C     6.176000000    -1.183000000    -1.854000000
H     6.907000000    -1.916000000    -2.185000000
C     6.162000000    -0.889000000    -0.488000000
O     7.043000000    -1.629000000     0.286000000
C     7.013000000    -1.738000000     1.721000000
C     8.055000000    -1.289000000     2.472000000
H     8.905000000    -0.855000000     1.952000000
C     8.077000000    -1.358000000     3.897000000
H     8.821000000    -1.004000000     4.607000000
C     6.971000000    -1.935000000     4.517000000
H     6.824000000    -2.044000000     5.589000000
C     5.890000000    -2.327000000     3.716000000
C     5.905000000    -2.270000000     2.343000000
H     4.943000000    -2.542000000     1.917000000
C     1.895000000    -1.823000000    -0.674000000
H     2.850000000    -2.267000000    -0.407000000
C     1.350000000    -0.853000000     0.150000000
H     1.926000000    -0.564000000     1.025000000
C     0.084000000    -0.289000000    -0.105000000
H    -0.221000000     0.525000000     0.544000000
C    -0.637000000    -0.660000000    -1.269000000
H    -1.609000000    -0.206000000    -1.448000000
C    -0.108000000    -1.718000000    -2.045000000
H    -0.702000000    -2.042000000    -2.896000000
C     1.168000000    -2.270000000    -1.790000000
C     1.770000000    -3.283000000    -2.746000000
O     1.144000000    -3.724000000    -3.692000000
O     2.848000000    -3.826000000    -2.481000000
O     5.688000000    -2.216000000    -7.046000000
H     4.940000000    -2.724000000    -6.731000000
H     6.136000000    -1.931000000    -6.250000000
O     0.346000000    -1.020000000    -8.876000000
H    -0.608000000    -1.064000000    -8.818000000
H     0.647000000    -1.853000000    -8.511000000
O    -0.603000000    -7.896000000    -4.341000000
H     0.023000000    -8.403000000    -4.858000000
H    -0.075000000    -7.210000000    -3.931000000
O     6.330000000    -4.854000000    -4.030000000
H     6.931000000    -4.352000000    -4.581000000
H     6.380000000    -5.746000000    -4.372000000
O     3.464000000    -5.134000000    -4.619000000
H     4.326000000    -4.769000000    -4.422000000
H     2.885000000    -4.749000000    -3.961000000
O     3.882000000    -8.387000000    -4.353000000
H     4.741000000    -8.590000000    -3.984000000
H     3.641000000    -7.550000000    -3.954000000
O    -1.424000000    -7.941000000     1.244000000
H    -0.609000000    -8.402000000     1.045000000
H    -1.436000000    -7.203000000     0.635000000
O    -0.427000000    -9.342000000    -1.950000000
H     0.520000000    -9.285000000    -1.822000000
H    -0.604000000    -8.760000000    -2.689000000
O     0.981000000    -6.320000000    -2.867000000
H     1.836000000    -6.582000000    -2.524000000
H     1.047000000    -5.371000000    -2.973000000
O     7.341000000    -4.882000000     0.042000000
H     6.664000000    -5.156000000    -0.578000000
H     7.434000000    -3.941000000    -0.107000000
O     2.833000000    -5.896000000    -0.552000000
H     3.747000000    -5.937000000    -0.834000000
H     2.528000000    -5.041000000    -0.855000000
O     0.770000000    -5.198000000    -6.263000000
H     1.121000000    -4.467000000    -5.755000000
H     1.258000000    -5.961000000    -5.953000000
O     3.364000000    -7.283000000     1.709000000
H     3.193000000    -6.539000000     1.131000000
H     3.943000000    -7.852000000     1.202000000
O     5.264000000    -4.516000000    -1.494000000
H     5.811000000    -4.577000000    -2.277000000
H     4.462000000    -4.087000000    -1.794000000
O    -2.966000000    -4.416000000    -5.960000000
H    -3.540000000    -3.680000000    -6.171000000
H    -2.935000000    -4.934000000    -6.765000000
O     1.525000000    -8.956000000    -5.577000000
H     1.755000000    -9.781000000    -6.005000000
H     2.358000000    -8.613000000    -5.254000000
O    -1.544000000    -4.194000000    -3.652000000
H    -1.810000000    -4.429000000    -4.541000000
H    -0.590000000    -4.130000000    -3.697000000
O     0.231000000    -3.775000000    -8.544000000
H     0.426000000    -4.281000000    -7.755000000
H     0.915000000    -4.025000000    -9.165000000
O    -1.208000000    -6.074000000    -1.113000000
H    -0.471000000    -6.174000000    -1.715000000
H    -1.742000000    -5.381000000    -1.501000000
