215
-1409.52399
C    -3.897000000    -2.899000000    -0.860000000
H    -3.814000000    -2.153000000    -1.647000000
C    -4.009000000    -2.398000000     0.470000000
C    -3.986000000    -3.318000000     1.547000000
H    -4.187000000    -2.981000000     2.560000000
C    -4.115000000    -0.882000000     0.757000000
O    -4.812000000    -0.269000000    -0.388000000
H    -3.070000000    -0.538000000     0.763000000
O    -4.585000000    -0.602000000     2.048000000
C    -3.774000000     0.194000000     2.713000000
C    -2.851000000    -0.357000000     3.665000000
H    -2.661000000    -1.425000000     3.745000000
C    -1.983000000     0.576000000     4.147000000
O    -0.854000000    -0.084000000     4.829000000
C    -2.028000000     1.988000000     4.010000000
C    -1.046000000     3.008000000     4.736000000
H    -1.544000000     3.931000000     5.038000000
C     0.187000000     3.136000000     3.797000000
C     0.197000000     4.178000000     2.885000000
H    -0.599000000     4.906000000     2.753000000
H    -0.773000000     2.556000000     5.692000000
C    -3.047000000     2.475000000     3.157000000
H    -3.149000000     3.553000000     3.060000000
C    -3.849000000     1.608000000     2.451000000
C    -4.938000000     2.153000000     1.417000000
H    -5.307000000     3.129000000     1.738000000
H    -5.849000000     1.587000000     1.622000000
C    -4.491000000     2.167000000    -0.050000000
C    -3.913000000     3.271000000    -0.669000000
H    -3.701000000     4.170000000    -0.095000000
C    -4.479000000     1.000000000    -0.788000000
C    -3.977000000     1.001000000    -2.090000000
H    -4.016000000     0.093000000    -2.686000000
C    -3.408000000     2.113000000    -2.615000000
O    -2.790000000     1.930000000    -3.830000000
C    -1.377000000     1.677000000    -3.783000000
C    -0.786000000     0.635000000    -4.726000000
C     0.543000000     0.730000000    -5.150000000
H     1.067000000     1.666000000    -4.973000000
C    -1.524000000    -0.469000000    -5.091000000
H    -2.563000000    -0.477000000    -4.773000000
O    -0.751000000     2.893000000    -3.962000000
H    -1.063000000     1.310000000    -2.794000000
C    -3.343000000     3.242000000    -1.896000000
C    -2.575000000     4.398000000    -2.423000000
H    -2.908000000     5.363000000    -2.037000000
H    -2.789000000     4.454000000    -3.492000000
C    -1.137000000     4.284000000    -2.047000000
C    -0.664000000     4.741000000    -0.775000000
H    -1.305000000     5.268000000    -0.073000000
C    -0.289000000     3.624000000    -2.863000000
C     1.054000000     3.547000000    -2.600000000
H     1.728000000     3.060000000    -3.299000000
C     1.573000000     3.985000000    -1.389000000
O     2.832000000     3.709000000    -1.089000000
C     3.210000000     2.666000000    -0.054000000
C     4.303000000     1.796000000    -0.633000000
C     4.745000000     1.773000000    -1.951000000
H     4.426000000     2.634000000    -2.533000000
C     4.900000000     0.924000000     0.290000000
H     4.494000000     0.755000000     1.284000000
O     3.402000000     3.423000000     1.199000000
H     2.290000000     2.078000000     0.075000000
C     0.695000000     4.663000000    -0.489000000
C     1.254000000     5.276000000     0.802000000
H     0.619000000     6.130000000     1.047000000
H     2.237000000     5.735000000     0.675000000
C     1.225000000     4.274000000     1.931000000
C     2.377000000     3.405000000     2.035000000
C     2.305000000     2.390000000     2.912000000
H     3.077000000     1.625000000     2.924000000
C     1.239000000     2.287000000     3.828000000
O     1.266000000     1.092000000     4.550000000
C     0.419000000    -0.001000000     4.065000000
H     0.282000000     0.000000000     2.974000000
C     1.104000000    -1.343000000     4.362000000
C     0.298000000    -2.480000000     4.561000000
H    -0.776000000    -2.399000000     4.411000000
C     2.464000000    -1.394000000     4.419000000
H     3.140000000    -0.547000000     4.336000000
C     3.051000000    -2.617000000     4.760000000
O     4.422000000    -2.713000000     4.805000000
C     2.220000000    -3.712000000     5.033000000
H     2.742000000    -4.623000000     5.315000000
C     0.871000000    -3.663000000     4.863000000
O     0.125000000    -4.801000000     5.013000000
C    -1.235000000    -4.965000000     4.921000000
C    -1.887000000    -5.069000000     3.670000000
H    -1.294000000    -5.105000000     2.760000000
C    -1.950000000    -5.013000000     6.052000000
H    -1.419000000    -4.905000000     6.995000000
C    -3.338000000    -5.156000000     6.038000000
H    -3.869000000    -5.021000000     6.977000000
C    -3.925000000    -5.414000000     4.841000000
H    -5.007000000    -5.481000000     4.765000000
C    -3.209000000    -5.381000000     3.627000000
O    -3.806000000    -5.497000000     2.387000000
C    -3.739000000    -4.689000000     1.306000000
C    -3.652000000    -5.105000000    -0.019000000
H    -3.489000000    -6.174000000    -0.130000000
C    -3.754000000    -4.265000000    -1.123000000
O    -3.629000000    -4.710000000    -2.403000000
C    -3.862000000    -4.038000000    -3.563000000
C    -2.768000000    -3.737000000    -4.350000000
H    -1.785000000    -4.142000000    -4.124000000
C    -5.135000000    -3.651000000    -3.942000000
H    -5.968000000    -3.959000000    -3.314000000
C    -5.307000000    -2.799000000    -5.044000000
H    -6.306000000    -2.454000000    -5.298000000
C    -4.237000000    -2.489000000    -5.827000000
H    -4.282000000    -1.782000000    -6.651000000
C    -2.978000000    -2.908000000    -5.495000000
O    -1.847000000    -2.570000000    -6.258000000
C    -1.016000000    -1.510000000    -5.834000000
C     0.262000000    -1.366000000    -6.446000000
H     0.679000000    -2.163000000    -7.057000000
C     1.031000000    -0.276000000    -6.055000000
O     2.217000000    -0.064000000    -6.736000000
C     3.377000000     0.624000000    -6.355000000
C     3.908000000     0.346000000    -5.111000000
H     3.511000000    -0.493000000    -4.545000000
C     4.026000000     1.475000000    -7.314000000
H     3.644000000     1.592000000    -8.325000000
C     5.242000000     2.108000000    -6.970000000
H     5.682000000     2.779000000    -7.703000000
C     5.809000000     1.774000000    -5.772000000
H     6.710000000     2.279000000    -5.433000000
C     5.172000000     0.924000000    -4.877000000
O     6.008000000     0.625000000    -3.822000000
C     5.732000000     0.829000000    -2.431000000
C     6.310000000    -0.009000000    -1.489000000
H     7.042000000    -0.759000000    -1.778000000
C     5.903000000     0.036000000    -0.165000000
O     6.312000000    -1.010000000     0.656000000
C     6.175000000    -0.955000000     2.038000000
C     6.879000000    -0.018000000     2.731000000
H     7.633000000     0.607000000     2.260000000
C     6.933000000    -0.041000000     4.126000000
H     7.664000000     0.575000000     4.641000000
C     6.153000000    -1.019000000     4.770000000
H     6.195000000    -1.201000000     5.841000000
C     5.296000000    -1.826000000     4.068000000
C     5.356000000    -1.838000000     2.675000000
H     4.850000000    -2.634000000     2.135000000
C     1.930000000    -1.344000000     0.210000000
H     2.937000000    -1.545000000     0.566000000
C     1.226000000    -0.216000000     0.616000000
H     1.717000000     0.509000000     1.260000000
C    -0.006000000     0.061000000     0.157000000
H    -0.492000000     0.988000000     0.366000000
C    -0.669000000    -0.844000000    -0.627000000
H    -1.689000000    -0.649000000    -0.950000000
C    -0.041000000    -2.040000000    -0.929000000
H    -0.570000000    -2.799000000    -1.498000000
C     1.332000000    -2.229000000    -0.642000000
C     1.971000000    -3.536000000    -1.064000000
O     1.323000000    -4.415000000    -1.617000000
O     3.143000000    -3.680000000    -0.869000000
O    -3.127000000    -7.459000000    -2.544000000
H    -3.790000000    -8.119000000    -2.342000000
H    -3.424000000    -6.672000000    -2.087000000
O     7.707000000    -3.762000000    -0.680000000
H     7.965000000    -3.657000000     0.236000000
H     7.940000000    -4.665000000    -0.893000000
O     5.252000000    -6.701000000    -5.686000000
H     5.784000000    -7.478000000    -5.857000000
H     4.777000000    -6.909000000    -4.882000000
O     0.849000000    -8.087000000    -1.358000000
H     0.171000000    -7.413000000    -1.389000000
H     0.950000000    -8.283000000    -0.427000000
O     5.242000000    -3.547000000    -2.475000000
H     4.330000000    -3.458000000    -2.198000000
H     5.711000000    -3.796000000    -1.679000000
O     2.948000000    -6.364000000    -2.222000000
H     2.269000000    -6.932000000    -1.858000000
H     2.747000000    -5.495000000    -1.873000000
O     3.682000000    -9.517000000    -2.166000000
H     2.912000000    -8.949000000    -2.196000000
H     3.719000000    -9.822000000    -1.259000000
O     2.513000000    -7.597000000    -4.760000000
H     1.895000000    -7.313000000    -5.433000000
H     2.724000000    -6.798000000    -4.276000000
O    -0.513000000    -5.852000000    -0.597000000
H     0.216000000    -5.588000000    -1.158000000
H    -0.852000000    -5.030000000    -0.242000000
O     3.529000000    -2.930000000    -6.366000000
H     2.879000000    -3.227000000    -7.003000000
H     4.315000000    -2.763000000    -6.886000000
O     6.833000000    -7.387000000     2.460000000
H     6.656000000    -8.294000000     2.209000000
H     6.115000000    -6.886000000     2.073000000
O     8.254000000    -2.717000000    -3.172000000
H     7.653000000    -3.130000000    -3.792000000
H     7.934000000    -2.988000000    -2.311000000
O     1.570000000    -8.435000000     1.365000000
H     1.746000000    -7.512000000     1.549000000
H     0.868000000    -8.671000000     1.971000000
O     4.890000000    -4.891000000     0.587000000
H     4.267000000    -4.399000000     0.051000000
H     5.749000000    -4.641000000     0.246000000
O    -1.409000000    -8.238000000     0.677000000
H    -1.688000000    -8.976000000     0.135000000
H    -1.192000000    -7.548000000     0.049000000
O     0.290000000    -6.363000000    -6.130000000
H     0.764000000    -6.401000000    -6.961000000
H     0.635000000    -5.584000000    -5.693000000
O     1.427000000    -4.566000000    -4.536000000
H     2.070000000    -3.892000000    -4.756000000
H     1.311000000    -4.486000000    -3.589000000
O     6.519000000    -4.351000000    -4.784000000
H     5.835000000    -4.857000000    -5.222000000
H     6.062000000    -3.893000000    -4.079000000
O     2.782000000    -5.800000000     2.095000000
H     2.789000000    -5.047000000     2.687000000
H     3.564000000    -5.687000000     1.555000000
