215
-1443.07316
C    -5.154000000    -1.811000000    -0.678000000
H    -5.276000000    -1.053000000    -1.448000000
C    -4.623000000    -1.502000000     0.614000000
C    -4.436000000    -2.553000000     1.526000000
H    -3.791000000    -2.403000000     2.388000000
C    -4.062000000    -0.109000000     0.932000000
O    -4.695000000     0.912000000     0.042000000
H    -2.972000000    -0.213000000     0.825000000
O    -4.305000000     0.327000000     2.280000000
C    -3.316000000     1.068000000     2.910000000
C    -2.621000000     0.489000000     3.960000000
H    -2.799000000    -0.545000000     4.242000000
C    -1.476000000     1.134000000     4.547000000
O    -0.541000000     0.418000000     5.203000000
C    -1.236000000     2.479000000     4.130000000
C     0.045000000     3.306000000     4.564000000
H    -0.306000000     4.336000000     4.469000000
C     1.188000000     3.076000000     3.677000000
C     1.451000000     4.096000000     2.743000000
H     0.973000000     5.072000000     2.764000000
H     0.215000000     3.250000000     5.641000000
C    -2.062000000     3.062000000     3.161000000
H    -1.831000000     4.006000000     2.673000000
C    -3.077000000     2.399000000     2.584000000
C    -3.970000000     3.173000000     1.596000000
H    -3.929000000     4.218000000     1.911000000
H    -5.006000000     2.839000000     1.687000000
C    -3.548000000     3.053000000     0.103000000
C    -2.795000000     3.997000000    -0.551000000
H    -2.357000000     4.836000000    -0.016000000
C    -3.932000000     1.913000000    -0.533000000
C    -3.599000000     1.755000000    -1.891000000
H    -3.961000000     0.927000000    -2.495000000
C    -2.854000000     2.757000000    -2.561000000
O    -2.276000000     2.443000000    -3.768000000
C    -0.997000000     1.786000000    -3.733000000
C    -0.826000000     0.555000000    -4.600000000
C     0.383000000     0.306000000    -5.246000000
H     1.162000000     1.060000000    -5.164000000
C    -1.873000000    -0.431000000    -4.704000000
H    -2.832000000    -0.264000000    -4.220000000
O     0.013000000     2.807000000    -4.066000000
H    -0.945000000     1.371000000    -2.716000000
C    -2.380000000     3.865000000    -1.891000000
C    -1.430000000     4.870000000    -2.521000000
H    -1.689000000     5.793000000    -1.998000000
H    -1.541000000     5.049000000    -3.593000000
C     0.001000000     4.386000000    -2.191000000
C     0.666000000     4.877000000    -1.046000000
H     0.165000000     5.654000000    -0.475000000
C     0.591000000     3.357000000    -2.959000000
C     1.891000000     2.965000000    -2.645000000
H     2.403000000     2.283000000    -3.319000000
C     2.568000000     3.460000000    -1.569000000
O     3.795000000     2.927000000    -1.260000000
C     3.883000000     1.931000000    -0.285000000
C     4.795000000     0.736000000    -0.683000000
C     4.865000000     0.340000000    -1.989000000
H     4.544000000     0.985000000    -2.803000000
C     5.341000000    -0.036000000     0.326000000
H     5.307000000     0.113000000     1.402000000
O     4.336000000     2.521000000     0.927000000
H     2.939000000     1.413000000    -0.058000000
C     1.924000000     4.352000000    -0.714000000
C     2.660000000     4.818000000     0.536000000
H     2.267000000     5.832000000     0.633000000
H     3.704000000     5.082000000     0.353000000
C     2.508000000     3.851000000     1.749000000
C     3.341000000     2.710000000     1.867000000
C     3.146000000     1.817000000     2.854000000
H     3.768000000     0.929000000     2.930000000
C     2.022000000     1.953000000     3.733000000
O     1.773000000     0.994000000     4.621000000
C     0.637000000     0.062000000     4.413000000
H     0.447000000     0.207000000     3.339000000
C     0.910000000    -1.410000000     4.650000000
C    -0.125000000    -2.332000000     4.740000000
H    -1.187000000    -2.102000000     4.728000000
C     2.197000000    -1.751000000     4.515000000
H     2.946000000    -0.977000000     4.368000000
C     2.503000000    -3.168000000     4.416000000
O     3.702000000    -3.604000000     3.858000000
C     1.546000000    -4.116000000     4.665000000
H     1.842000000    -5.161000000     4.709000000
C     0.233000000    -3.747000000     4.880000000
O    -0.736000000    -4.755000000     4.879000000
C    -2.075000000    -4.517000000     4.617000000
C    -2.575000000    -4.813000000     3.391000000
H    -1.931000000    -5.024000000     2.541000000
C    -2.922000000    -4.222000000     5.760000000
H    -2.391000000    -3.909000000     6.655000000
C    -4.333000000    -4.129000000     5.632000000
H    -5.005000000    -3.697000000     6.369000000
C    -4.835000000    -4.422000000     4.340000000
H    -5.898000000    -4.337000000     4.127000000
C    -3.953000000    -4.679000000     3.249000000
O    -4.528000000    -4.926000000     2.035000000
C    -4.851000000    -3.876000000     1.187000000
C    -5.490000000    -4.090000000     0.027000000
H    -5.785000000    -5.076000000    -0.322000000
C    -5.540000000    -3.064000000    -0.974000000
O    -6.055000000    -3.361000000    -2.252000000
C    -5.605000000    -2.743000000    -3.417000000
C    -4.350000000    -2.989000000    -3.927000000
H    -3.634000000    -3.683000000    -3.496000000
C    -6.578000000    -2.009000000    -4.123000000
H    -7.576000000    -1.908000000    -3.704000000
C    -6.249000000    -1.326000000    -5.298000000
H    -6.957000000    -0.709000000    -5.845000000
C    -4.950000000    -1.439000000    -5.756000000
H    -4.715000000    -1.006000000    -6.725000000
C    -4.015000000    -2.294000000    -5.135000000
O    -2.714000000    -2.375000000    -5.665000000
C    -1.647000000    -1.545000000    -5.447000000
C    -0.440000000    -1.830000000    -6.060000000
H    -0.420000000    -2.781000000    -6.587000000
C     0.565000000    -0.884000000    -5.967000000
O     1.799000000    -1.127000000    -6.586000000
C     2.965000000    -0.482000000    -6.206000000
C     3.692000000    -1.043000000    -5.188000000
H     3.323000000    -1.935000000    -4.688000000
C     3.426000000     0.679000000    -6.791000000
H     2.856000000     1.112000000    -7.608000000
C     4.761000000     1.137000000    -6.511000000
H     5.293000000     1.825000000    -7.163000000
C     5.512000000     0.505000000    -5.498000000
H     6.515000000     0.741000000    -5.149000000
C     4.953000000    -0.513000000    -4.785000000
O     5.623000000    -1.121000000    -3.761000000
C     5.514000000    -0.802000000    -2.421000000
C     6.208000000    -1.558000000    -1.471000000
H     6.935000000    -2.317000000    -1.749000000
C     6.179000000    -1.111000000    -0.156000000
O     6.842000000    -1.910000000     0.749000000
C     6.438000000    -2.036000000     2.064000000
C     7.110000000    -1.323000000     3.026000000
H     7.944000000    -0.686000000     2.745000000
C     6.613000000    -1.414000000     4.356000000
H     7.166000000    -1.019000000     5.205000000
C     5.434000000    -2.143000000     4.587000000
H     5.133000000    -2.117000000     5.632000000
C     4.781000000    -2.875000000     3.606000000
C     5.318000000    -2.824000000     2.306000000
H     4.947000000    -3.334000000     1.421000000
C     2.350000000    -2.030000000     0.143000000
H     3.282000000    -2.387000000     0.575000000
C     1.664000000    -1.088000000     0.862000000
H     1.948000000    -0.798000000     1.870000000
C     0.471000000    -0.514000000     0.294000000
H    -0.096000000     0.286000000     0.857000000
C     0.077000000    -0.863000000    -1.012000000
H    -0.764000000    -0.355000000    -1.478000000
C     0.860000000    -1.746000000    -1.746000000
H     0.515000000    -1.903000000    -2.765000000
C     2.018000000    -2.334000000    -1.161000000
C     2.852000000    -3.385000000    -1.829000000
O     2.291000000    -4.184000000    -2.553000000
O     3.902000000    -3.803000000    -1.414000000
O     4.437000000    -4.555000000    -4.507000000
H     5.117000000    -5.137000000    -4.169000000
H     4.067000000    -4.141000000    -3.727000000
O     1.788000000    -7.923000000    -0.541000000
H     2.635000000    -7.668000000    -0.174000000
H     1.281000000    -7.111000000    -0.561000000
O     1.380000000    -7.313000000     2.735000000
H     0.489000000    -7.491000000     3.035000000
H     1.280000000    -6.621000000     2.082000000
O     6.137000000    -8.819000000    -1.888000000
H     5.862000000    -8.495000000    -1.031000000
H     5.510000000    -9.512000000    -2.095000000
O     5.898000000    -5.442000000    -1.904000000
H     5.417000000    -6.258000000    -2.045000000
H     5.232000000    -4.820000000    -1.611000000
O     3.142000000    -6.697000000    -2.834000000
H     2.912000000    -5.799000000    -3.074000000
H     2.572000000    -6.900000000    -2.092000000
O    -0.731000000    -4.541000000    -2.201000000
H     0.201000000    -4.335000000    -2.265000000
H    -0.873000000    -5.218000000    -2.862000000
O     4.807000000    -8.174000000     0.865000000
H     4.796000000    -7.767000000     1.731000000
H     4.785000000    -9.115000000     1.042000000
O     1.593000000    -4.745000000    -5.130000000
H     2.292000000    -4.384000000    -5.675000000
H     1.884000000    -4.588000000    -4.232000000
O     0.220000000    -5.234000000     1.146000000
H     1.082000000    -4.849000000     1.305000000
H    -0.380000000    -4.489000000     1.148000000
O     7.374000000    -5.402000000     0.639000000
H     8.296000000    -5.310000000     0.400000000
H     6.897000000    -5.011000000    -0.093000000
O     3.275000000    -5.303000000     0.828000000
H     3.506000000    -4.652000000     0.166000000
H     4.105000000    -5.513000000     1.257000000
O     2.804000000    -7.843000000    -5.173000000
H     3.549000000    -8.403000000    -4.958000000
H     2.708000000    -7.270000000    -4.412000000
O     0.044000000    -6.867000000    -4.407000000
H     0.450000000    -6.107000000    -4.823000000
H     0.737000000    -7.527000000    -4.384000000
O     4.095000000    -3.426000000    -7.147000000
H     4.133000000    -3.540000000    -6.198000000
H     4.591000000    -4.167000000    -7.497000000
O    -1.794000000    -7.133000000     0.723000000
H    -1.150000000    -6.546000000     1.119000000
H    -1.580000000    -7.996000000     1.077000000
O     6.462000000    -7.251000000    -4.843000000
H     7.043000000    -6.610000000    -4.433000000
H     6.123000000    -7.769000000    -4.112000000
O     8.121000000    -3.003000000    -4.016000000
H     7.226000000    -3.188000000    -4.301000000
H     8.341000000    -2.173000000    -4.439000000
O    -1.463000000    -3.054000000    -0.002000000
H    -1.242000000    -3.678000000    -0.693000000
H    -0.932000000    -2.282000000    -0.197000000
