215
-1464.41940
C    -4.508000000    -1.793000000     0.406000000
H    -4.652000000    -1.164000000    -0.469000000
C    -4.178000000    -1.160000000     1.580000000
C    -3.884000000    -1.973000000     2.690000000
H    -3.379000000    -1.565000000     3.562000000
C    -3.948000000     0.363000000     1.538000000
O    -4.810000000     0.953000000     0.535000000
H    -2.901000000     0.528000000     1.243000000
O    -4.133000000     0.876000000     2.859000000
C    -3.196000000     1.824000000     3.344000000
C    -2.254000000     1.318000000     4.230000000
H    -2.392000000     0.301000000     4.587000000
C    -1.016000000     1.885000000     4.379000000
O     0.018000000     1.140000000     5.051000000
C    -0.785000000     3.112000000     3.798000000
C     0.512000000     3.885000000     3.889000000
H     0.330000000     4.942000000     4.092000000
C     1.493000000     3.522000000     2.776000000
C     1.676000000     4.360000000     1.694000000
H     0.998000000     5.209000000     1.677000000
H     0.989000000     3.683000000     4.850000000
C    -1.825000000     3.728000000     3.064000000
H    -1.736000000     4.741000000     2.679000000
C    -2.940000000     3.018000000     2.612000000
C    -4.020000000     3.497000000     1.659000000
H    -4.059000000     4.576000000     1.820000000
H    -4.975000000     3.062000000     1.962000000
C    -3.771000000     3.110000000     0.212000000
C    -3.097000000     3.980000000    -0.656000000
H    -2.764000000     4.957000000    -0.315000000
C    -4.233000000     1.892000000    -0.340000000
C    -3.917000000     1.565000000    -1.647000000
H    -4.104000000     0.566000000    -2.032000000
C    -3.143000000     2.379000000    -2.429000000
O    -2.775000000     1.907000000    -3.711000000
C    -1.461000000     1.383000000    -3.967000000
C    -1.545000000     0.047000000    -4.761000000
C    -0.399000000    -0.347000000    -5.493000000
H     0.416000000     0.339000000    -5.705000000
C    -2.629000000    -0.800000000    -4.549000000
H    -3.491000000    -0.513000000    -3.953000000
O    -0.530000000     2.346000000    -4.541000000
H    -1.070000000     1.185000000    -2.958000000
C    -2.687000000     3.609000000    -1.965000000
C    -1.753000000     4.461000000    -2.781000000
H    -1.727000000     5.487000000    -2.408000000
H    -2.023000000     4.574000000    -3.833000000
C    -0.384000000     3.977000000    -2.714000000
C     0.460000000     4.530000000    -1.728000000
H     0.103000000     5.377000000    -1.148000000
C     0.202000000     3.096000000    -3.606000000
C     1.535000000     2.717000000    -3.491000000
H     1.878000000     1.923000000    -4.149000000
C     2.325000000     3.236000000    -2.558000000
O     3.561000000     2.680000000    -2.390000000
C     3.668000000     1.743000000    -1.249000000
C     4.545000000     0.562000000    -1.669000000
C     4.377000000    -0.125000000    -2.875000000
H     3.598000000     0.139000000    -3.585000000
C     5.377000000    -0.046000000    -0.741000000
H     5.577000000     0.460000000     0.199000000
O     4.198000000     2.436000000    -0.141000000
H     2.679000000     1.275000000    -1.131000000
C     1.811000000     4.155000000    -1.645000000
C     2.753000000     4.770000000    -0.631000000
H     2.430000000     5.794000000    -0.431000000
H     3.799000000     4.857000000    -0.934000000
C     2.501000000     3.928000000     0.648000000
C     3.207000000     2.685000000     0.781000000
C     3.110000000     1.952000000     1.942000000
H     3.796000000     1.121000000     2.086000000
C     2.213000000     2.336000000     2.894000000
O     2.167000000     1.546000000     3.997000000
C     1.071000000     0.623000000     4.071000000
H     0.585000000     0.398000000     3.111000000
C     1.561000000    -0.831000000     4.516000000
C     0.796000000    -1.633000000     5.322000000
H     0.109000000    -1.054000000     5.935000000
C     2.592000000    -1.444000000     3.782000000
H     3.220000000    -0.808000000     3.163000000
C     2.992000000    -2.749000000     4.068000000
O     4.000000000    -3.299000000     3.322000000
C     2.190000000    -3.474000000     4.887000000
H     2.472000000    -4.513000000     5.037000000
C     1.048000000    -2.969000000     5.518000000
O     0.141000000    -3.760000000     6.222000000
C    -1.216000000    -3.528000000     6.183000000
C    -1.845000000    -3.947000000     5.072000000
H    -1.399000000    -4.471000000     4.230000000
C    -1.845000000    -2.678000000     7.118000000
H    -1.328000000    -2.195000000     7.943000000
C    -3.190000000    -2.365000000     6.925000000
H    -3.635000000    -1.720000000     7.678000000
C    -3.868000000    -2.828000000     5.780000000
H    -4.935000000    -2.661000000     5.661000000
C    -3.182000000    -3.626000000     4.910000000
O    -3.882000000    -4.078000000     3.823000000
C    -4.081000000    -3.350000000     2.691000000
C    -4.539000000    -4.013000000     1.549000000
H    -4.535000000    -5.099000000     1.569000000
C    -4.699000000    -3.180000000     0.389000000
O    -5.011000000    -3.867000000    -0.776000000
C    -5.403000000    -3.228000000    -1.928000000
C    -4.357000000    -3.165000000    -2.895000000
H    -3.369000000    -3.544000000    -2.644000000
C    -6.691000000    -2.856000000    -2.233000000
H    -7.508000000    -2.950000000    -1.522000000
C    -7.061000000    -2.572000000    -3.500000000
H    -8.088000000    -2.264000000    -3.682000000
C    -6.070000000    -2.582000000    -4.485000000
H    -6.422000000    -2.359000000    -5.489000000
C    -4.728000000    -2.818000000    -4.183000000
O    -3.776000000    -2.871000000    -5.146000000
C    -2.677000000    -2.035000000    -5.235000000
C    -1.530000000    -2.452000000    -5.945000000
H    -1.593000000    -3.458000000    -6.351000000
C    -0.443000000    -1.622000000    -6.078000000
O     0.644000000    -2.191000000    -6.671000000
C     1.970000000    -1.698000000    -6.519000000
C     2.802000000    -2.032000000    -5.421000000
H     2.394000000    -2.749000000    -4.714000000
C     2.573000000    -0.998000000    -7.534000000
H     1.989000000    -0.714000000    -8.406000000
C     3.879000000    -0.476000000    -7.445000000
H     4.277000000     0.186000000    -8.209000000
C     4.647000000    -0.858000000    -6.315000000
H     5.693000000    -0.571000000    -6.250000000
C     4.115000000    -1.618000000    -5.314000000
O     4.878000000    -2.071000000    -4.261000000
C     5.104000000    -1.264000000    -3.184000000
C     6.000000000    -1.783000000    -2.237000000
H     6.633000000    -2.651000000    -2.405000000
C     6.102000000    -1.197000000    -0.975000000
O     7.010000000    -1.692000000    -0.124000000
C     6.639000000    -1.883000000     1.208000000
C     7.449000000    -1.353000000     2.205000000
H     8.361000000    -0.820000000     1.949000000
C     7.109000000    -1.246000000     3.568000000
H     7.652000000    -0.626000000     4.277000000
C     5.915000000    -1.901000000     3.956000000
H     5.578000000    -1.991000000     4.985000000
C     5.176000000    -2.615000000     2.969000000
C     5.457000000    -2.501000000     1.629000000
H     4.804000000    -2.979000000     0.903000000
C     1.385000000    -1.976000000    -0.588000000
H     2.382000000    -2.353000000    -0.374000000
C     0.969000000    -0.733000000    -0.052000000
H     1.667000000    -0.268000000     0.639000000
C    -0.222000000    -0.150000000    -0.341000000
H    -0.551000000     0.789000000     0.085000000
C    -1.091000000    -0.885000000    -1.092000000
H    -2.081000000    -0.543000000    -1.383000000
C    -0.767000000    -2.140000000    -1.618000000
H    -1.431000000    -2.689000000    -2.281000000
C     0.504000000    -2.695000000    -1.390000000
C     0.914000000    -4.001000000    -2.004000000
O     0.173000000    -4.479000000    -2.868000000
O     1.860000000    -4.700000000    -1.647000000
O     4.145000000    -7.691000000    -6.096000000
H     4.625000000    -8.064000000    -5.357000000
H     3.232000000    -7.684000000    -5.810000000
O     3.037000000    -5.208000000    -6.519000000
H     3.359000000    -6.106000000    -6.443000000
H     3.830000000    -4.674000000    -6.580000000
O     0.840000000    -8.612000000     1.808000000
H     0.032000000    -8.210000000     1.490000000
H     1.521000000    -8.276000000     1.225000000
O    -1.710000000    -5.931000000    -4.194000000
H    -1.440000000    -5.223000000    -3.608000000
H    -1.121000000    -5.857000000    -4.945000000
O    -1.845000000    -4.751000000    -0.829000000
H    -1.039000000    -4.755000000    -1.346000000
H    -1.549000000    -4.856000000     0.075000000
O     4.395000000    -4.568000000    -1.674000000
H     3.448000000    -4.508000000    -1.552000000
H     4.514000000    -5.303000000    -2.276000000
O     1.735000000    -7.054000000    -2.917000000
H     1.692000000    -6.110000000    -2.763000000
H     0.820000000    -7.324000000    -3.004000000
O     1.536000000    -8.730000000    -5.620000000
H     0.986000000    -8.564000000    -4.854000000
H     1.854000000    -9.625000000    -5.498000000
O     5.003000000    -7.434000000    -0.386000000
H     4.733000000    -6.590000000    -0.024000000
H     5.956000000    -7.371000000    -0.455000000
O    -0.189000000    -5.326000000    -7.893000000
H    -0.126000000    -6.262000000    -7.704000000
H     0.266000000    -4.903000000    -7.165000000
O    -3.421000000    -7.054000000    -2.257000000
H    -2.971000000    -6.219000000    -2.125000000
H    -3.524000000    -7.123000000    -3.206000000
O    -0.433000000    -4.426000000     1.404000000
H    -0.240000000    -3.557000000     1.053000000
H    -0.641000000    -4.272000000     2.325000000
O     5.670000000    -4.945000000    -4.182000000
H     5.344000000    -4.141000000    -3.778000000
H     5.996000000    -4.667000000    -5.038000000
O    -1.335000000    -7.876000000     0.319000000
H    -2.009000000    -8.320000000     0.834000000
H    -1.810000000    -7.494000000    -0.419000000
O     2.760000000    -6.653000000     2.801000000
H     2.555000000    -6.088000000     2.056000000
H     1.906000000    -6.920000000     3.141000000
O     4.022000000    -8.731000000    -2.462000000
H     3.378000000    -8.118000000    -2.815000000
H     4.291000000    -8.344000000    -1.629000000
O    -0.706000000    -8.397000000    -3.448000000
H    -1.255000000    -7.628000000    -3.295000000
H    -0.563000000    -8.766000000    -2.577000000
O     0.515000000    -4.993000000    -5.350000000
H     0.516000000    -4.674000000    -4.447000000
H     1.390000000    -4.786000000    -5.678000000
O     1.721000000    -6.233000000     0.319000000
H     1.994000000    -5.722000000    -0.444000000
H     0.856000000    -5.888000000     0.540000000
