215
-1417.64083
C    -3.990000000    -1.831000000     0.213000000
H    -3.999000000    -1.279000000    -0.724000000
C    -4.036000000    -1.328000000     1.518000000
C    -4.095000000    -2.197000000     2.635000000
H    -3.829000000    -1.831000000     3.623000000
C    -3.641000000     0.098000000     1.634000000
O    -4.608000000     0.863000000     0.812000000
H    -2.643000000     0.204000000     1.183000000
O    -3.686000000     0.557000000     3.032000000
C    -2.701000000     1.374000000     3.597000000
C    -1.716000000     0.812000000     4.386000000
H    -1.762000000    -0.209000000     4.757000000
C    -0.537000000     1.484000000     4.538000000
O     0.450000000     0.826000000     5.102000000
C    -0.373000000     2.763000000     4.100000000
C     0.948000000     3.544000000     4.467000000
H     0.666000000     4.598000000     4.423000000
C     1.989000000     3.247000000     3.407000000
C     2.136000000     4.142000000     2.357000000
H     1.583000000     5.073000000     2.260000000
H     1.374000000     3.313000000     5.445000000
C    -1.444000000     3.377000000     3.479000000
H    -1.459000000     4.446000000     3.282000000
C    -2.594000000     2.616000000     3.085000000
C    -3.697000000     3.298000000     2.304000000
H    -3.671000000     4.382000000     2.438000000
H    -4.695000000     3.009000000     2.639000000
C    -3.572000000     3.075000000     0.783000000
C    -2.928000000     4.062000000     0.025000000
H    -2.590000000     4.994000000     0.471000000
C    -4.078000000     1.920000000     0.105000000
C    -4.067000000     1.868000000    -1.290000000
H    -4.427000000     0.966000000    -1.779000000
C    -3.443000000     2.884000000    -2.057000000
O    -3.131000000     2.548000000    -3.376000000
C    -1.850000000     1.939000000    -3.589000000
C    -1.857000000     0.890000000    -4.759000000
C    -0.894000000     0.840000000    -5.767000000
H    -0.079000000     1.556000000    -5.843000000
C    -2.834000000    -0.104000000    -4.784000000
H    -3.570000000    -0.047000000    -3.987000000
O    -0.920000000     3.005000000    -3.892000000
H    -1.505000000     1.370000000    -2.714000000
C    -2.798000000     3.905000000    -1.388000000
C    -1.883000000     4.959000000    -1.989000000
H    -1.913000000     5.802000000    -1.295000000
H    -2.306000000     5.349000000    -2.917000000
C    -0.441000000     4.441000000    -2.101000000
C     0.539000000     4.834000000    -1.172000000
H     0.286000000     5.710000000    -0.579000000
C    -0.016000000     3.478000000    -2.997000000
C     1.258000000     2.935000000    -3.062000000
H     1.470000000     2.139000000    -3.772000000
C     2.113000000     3.231000000    -2.040000000
O     3.393000000     2.652000000    -2.061000000
C     3.513000000     1.581000000    -1.131000000
C     4.053000000     0.273000000    -1.777000000
C     3.848000000    -0.045000000    -3.074000000
H     3.432000000     0.679000000    -3.769000000
C     4.535000000    -0.723000000    -0.918000000
H     4.600000000    -0.581000000     0.158000000
O     4.225000000     1.953000000     0.129000000
H     2.539000000     1.225000000    -0.762000000
C     1.825000000     4.244000000    -1.097000000
C     2.773000000     4.720000000    -0.068000000
H     2.478000000     5.727000000     0.234000000
H     3.776000000     4.743000000    -0.499000000
C     2.800000000     3.730000000     1.138000000
C     3.413000000     2.492000000     1.108000000
C     3.552000000     1.810000000     2.314000000
H     4.166000000     0.913000000     2.345000000
C     2.798000000     2.107000000     3.433000000
O     2.619000000     1.243000000     4.479000000
C     1.528000000     0.348000000     4.258000000
H     1.201000000     0.261000000     3.211000000
C     1.918000000    -1.135000000     4.635000000
C     0.973000000    -2.044000000     5.140000000
H    -0.007000000    -1.664000000     5.417000000
C     3.177000000    -1.589000000     4.406000000
H     3.933000000    -0.869000000     4.101000000
C     3.442000000    -2.991000000     4.415000000
O     4.684000000    -3.442000000     4.126000000
C     2.450000000    -3.885000000     4.625000000
H     2.693000000    -4.943000000     4.674000000
C     1.198000000    -3.444000000     5.114000000
O     0.198000000    -4.350000000     5.411000000
C    -1.133000000    -4.048000000     5.502000000
C    -1.918000000    -4.218000000     4.433000000
H    -1.426000000    -4.459000000     3.493000000
C    -1.687000000    -3.792000000     6.784000000
H    -1.027000000    -3.635000000     7.633000000
C    -3.037000000    -3.742000000     6.936000000
H    -3.397000000    -3.456000000     7.921000000
C    -3.874000000    -3.831000000     5.861000000
H    -4.936000000    -3.599000000     5.849000000
C    -3.311000000    -4.247000000     4.613000000
O    -4.197000000    -4.410000000     3.521000000
C    -4.256000000    -3.572000000     2.448000000
C    -4.361000000    -4.017000000     1.199000000
H    -4.630000000    -5.059000000     1.043000000
C    -4.241000000    -3.190000000     0.060000000
O    -4.147000000    -3.712000000    -1.208000000
C    -4.788000000    -3.153000000    -2.308000000
C    -4.028000000    -2.818000000    -3.391000000
H    -2.996000000    -3.151000000    -3.310000000
C    -6.139000000    -2.916000000    -2.279000000
H    -6.702000000    -3.124000000    -1.373000000
C    -6.767000000    -2.541000000    -3.465000000
H    -7.826000000    -2.297000000    -3.471000000
C    -6.003000000    -2.302000000    -4.612000000
H    -6.546000000    -2.097000000    -5.531000000
C    -4.582000000    -2.477000000    -4.588000000
O    -3.832000000    -2.154000000    -5.679000000
C    -2.857000000    -1.155000000    -5.689000000
C    -1.841000000    -1.253000000    -6.642000000
H    -1.664000000    -2.067000000    -7.339000000
C    -0.818000000    -0.288000000    -6.582000000
O     0.142000000    -0.241000000    -7.533000000
C     1.481000000    -0.199000000    -7.212000000
C     2.016000000    -0.913000000    -6.128000000
H     1.454000000    -1.593000000    -5.493000000
C     2.357000000     0.558000000    -8.025000000
H     2.016000000     1.026000000    -8.945000000
C     3.614000000     0.864000000    -7.571000000
H     4.242000000     1.573000000    -8.104000000
C     4.137000000     0.241000000    -6.466000000
H     5.159000000     0.426000000    -6.146000000
C     3.420000000    -0.815000000    -5.862000000
O     3.994000000    -1.606000000    -4.956000000
C     4.239000000    -1.208000000    -3.626000000
C     4.818000000    -2.176000000    -2.818000000
H     5.193000000    -3.108000000    -3.231000000
C     4.980000000    -1.925000000    -1.468000000
O     5.386000000    -2.963000000    -0.625000000
C     5.760000000    -2.758000000     0.673000000
C     6.901000000    -2.057000000     0.952000000
H     7.512000000    -1.743000000     0.110000000
C     7.353000000    -1.755000000     2.275000000
H     8.272000000    -1.188000000     2.397000000
C     6.680000000    -2.330000000     3.326000000
H     6.952000000    -2.272000000     4.376000000
C     5.439000000    -2.919000000     3.050000000
C     5.030000000    -3.283000000     1.772000000
H     4.100000000    -3.805000000     1.563000000
C     1.391000000    -1.909000000    -0.682000000
H     2.303000000    -2.474000000    -0.505000000
C     1.027000000    -0.820000000     0.142000000
H     1.709000000    -0.785000000     0.988000000
C    -0.121000000    -0.142000000    -0.135000000
H    -0.376000000     0.715000000     0.516000000
C    -0.944000000    -0.533000000    -1.148000000
H    -1.914000000    -0.049000000    -1.229000000
C    -0.503000000    -1.495000000    -2.068000000
H    -1.068000000    -1.649000000    -2.984000000
C     0.672000000    -2.226000000    -1.804000000
C     1.126000000    -3.327000000    -2.752000000
O     0.541000000    -3.528000000    -3.725000000
O     1.843000000    -4.200000000    -2.378000000
O     3.663000000    -5.281000000    -6.613000000
H     4.022000000    -6.015000000    -7.111000000
H     4.421000000    -4.897000000    -6.171000000
O     0.965000000    -7.609000000     0.094000000
H     0.481000000    -6.796000000     0.237000000
H     1.758000000    -7.338000000    -0.369000000
O    -1.244000000    -6.330000000    -5.162000000
H    -0.959000000    -6.301000000    -4.249000000
H    -0.702000000    -5.676000000    -5.604000000
O    -0.995000000    -5.187000000    -2.143000000
H    -0.166000000    -4.886000000    -2.516000000
H    -0.751000000    -5.584000000    -1.307000000
O     3.345000000    -5.882000000    -1.043000000
H     2.735000000    -5.365000000    -1.568000000
H     4.207000000    -5.522000000    -1.252000000
O    -3.727000000    -5.176000000    -5.674000000
H    -3.609000000    -4.234000000    -5.550000000
H    -2.847000000    -5.542000000    -5.586000000
O     2.408000000    -5.864000000    -4.266000000
H     1.933000000    -5.223000000    -3.737000000
H     2.557000000    -5.421000000    -5.102000000
O     0.840000000    -9.495000000    -2.461000000
H     1.117000000    -9.054000000    -1.658000000
H     0.161000000   -10.106000000    -2.177000000
O     4.636000000    -7.417000000     1.008000000
H     4.166000000    -6.939000000     0.325000000
H     5.494000000    -7.600000000     0.625000000
O    -1.292000000    -4.861000000    -8.350000000
H    -0.890000000    -5.730000000    -8.331000000
H    -0.765000000    -4.340000000    -7.745000000
O    -1.033000000    -3.274000000     0.981000000
H    -1.666000000    -2.569000000     1.114000000
H    -0.455000000    -2.950000000     0.290000000
O     5.166000000    -6.585000000    -3.898000000
H     4.284000000    -6.265000000    -3.710000000
H     5.559000000    -5.901000000    -4.439000000
O    -3.217000000    -6.512000000    -2.704000000
H    -3.880000000    -5.890000000    -2.404000000
H    -2.383000000    -6.079000000    -2.519000000
O    -2.379000000    -8.913000000    -1.152000000
H    -1.819000000    -8.182000000    -0.893000000
H    -2.658000000    -8.697000000    -2.042000000
O     2.024000000    -3.321000000    -7.688000000
H     2.694000000    -2.707000000    -7.990000000
H     2.512000000    -3.993000000    -7.212000000
O     6.122000000    -4.472000000    -5.694000000
H     6.970000000    -4.916000000    -5.714000000
H     6.315000000    -3.574000000    -5.960000000
O     1.566000000    -8.469000000    -4.881000000
H     1.788000000    -7.537000000    -4.863000000
H     1.376000000    -8.688000000    -3.969000000
O     0.145000000    -4.310000000    -6.073000000
H     0.187000000    -3.890000000    -5.213000000
H     0.786000000    -3.836000000    -6.602000000
O    -0.990000000    -5.880000000     0.614000000
H    -0.963000000    -4.965000000     0.891000000
H    -1.707000000    -6.263000000     1.120000000
