215
-1420.81786
C    -3.168000000    -2.893000000    -0.075000000
H    -3.305000000    -2.113000000    -0.819000000
C    -3.344000000    -2.611000000     1.259000000
C    -3.060000000    -3.590000000     2.237000000
H    -3.113000000    -3.350000000     3.296000000
C    -3.489000000    -1.110000000     1.529000000
O    -4.554000000    -0.443000000     0.868000000
H    -2.524000000    -0.655000000     1.261000000
O    -3.587000000    -0.933000000     2.904000000
C    -2.959000000     0.180000000     3.492000000
C    -1.916000000    -0.114000000     4.304000000
H    -1.594000000    -1.150000000     4.374000000
C    -1.023000000     0.894000000     4.698000000
O     0.206000000     0.437000000     5.167000000
C    -1.333000000     2.234000000     4.547000000
C    -0.303000000     3.384000000     4.821000000
H    -0.909000000     4.286000000     4.927000000
C     0.725000000     3.452000000     3.619000000
C     0.471000000     4.348000000     2.544000000
H    -0.391000000     4.996000000     2.677000000
H     0.276000000     3.238000000     5.735000000
C    -2.526000000     2.494000000     3.981000000
H    -2.946000000     3.484000000     3.820000000
C    -3.338000000     1.497000000     3.412000000
C    -4.553000000     1.878000000     2.564000000
H    -5.163000000     2.771000000     2.716000000
H    -5.296000000     1.150000000     2.897000000
C    -4.120000000     1.903000000     1.128000000
C    -3.773000000     3.093000000     0.503000000
H    -3.570000000     3.929000000     1.166000000
C    -4.267000000     0.717000000     0.310000000
C    -4.239000000     0.818000000    -1.071000000
H    -4.411000000    -0.025000000    -1.735000000
C    -3.998000000     2.050000000    -1.652000000
O    -3.785000000     1.940000000    -3.013000000
C    -2.431000000     1.972000000    -3.547000000
C    -2.201000000     0.874000000    -4.594000000
C    -1.155000000     1.081000000    -5.537000000
H    -0.522000000     1.964000000    -5.555000000
C    -2.934000000    -0.299000000    -4.747000000
H    -3.736000000    -0.521000000    -4.047000000
O    -1.960000000     3.267000000    -3.877000000
H    -1.744000000     1.688000000    -2.736000000
C    -3.741000000     3.196000000    -0.875000000
C    -3.313000000     4.525000000    -1.533000000
H    -3.566000000     5.306000000    -0.813000000
H    -3.888000000     4.708000000    -2.444000000
C    -1.794000000     4.518000000    -1.772000000
C    -1.027000000     5.078000000    -0.800000000
H    -1.418000000     5.567000000     0.088000000
C    -1.212000000     3.853000000    -2.873000000
C     0.188000000     3.682000000    -2.835000000
H     0.507000000     3.170000000    -3.739000000
C     0.925000000     4.246000000    -1.863000000
O     2.188000000     3.764000000    -1.796000000
C     2.483000000     2.727000000    -0.854000000
C     3.488000000     1.764000000    -1.460000000
C     3.149000000     1.229000000    -2.699000000
H     2.251000000     1.585000000    -3.197000000
C     4.619000000     1.274000000    -0.772000000
H     5.025000000     1.671000000     0.155000000
O     3.033000000     3.411000000     0.206000000
H     1.519000000     2.259000000    -0.605000000
C     0.361000000     5.026000000    -0.840000000
C     1.142000000     5.530000000     0.346000000
H     0.563000000     6.419000000     0.606000000
H     2.138000000     5.795000000    -0.015000000
C     1.336000000     4.484000000     1.427000000
C     2.377000000     3.599000000     1.340000000
C     2.586000000     2.657000000     2.278000000
H     3.283000000     1.839000000     2.112000000
C     1.825000000     2.603000000     3.455000000
O     2.096000000     1.470000000     4.290000000
C     1.275000000     0.288000000     4.215000000
H     0.753000000     0.211000000     3.250000000
C     2.193000000    -0.958000000     4.334000000
C     1.523000000    -2.114000000     4.774000000
H     0.502000000    -2.089000000     5.145000000
C     3.529000000    -1.088000000     3.784000000
H     4.050000000    -0.167000000     3.534000000
C     4.121000000    -2.340000000     3.710000000
O     5.413000000    -2.550000000     3.382000000
C     3.471000000    -3.434000000     4.349000000
H     3.916000000    -4.412000000     4.188000000
C     2.168000000    -3.345000000     4.791000000
O     1.602000000    -4.462000000     5.308000000
C     0.325000000    -4.749000000     5.311000000
C    -0.277000000    -5.039000000     4.099000000
H     0.205000000    -5.122000000     3.128000000
C    -0.429000000    -4.710000000     6.424000000
H     0.102000000    -4.424000000     7.328000000
C    -1.723000000    -5.207000000     6.408000000
H    -2.259000000    -5.296000000     7.349000000
C    -2.318000000    -5.537000000     5.213000000
H    -3.362000000    -5.834000000     5.153000000
C    -1.597000000    -5.453000000     4.053000000
O    -2.210000000    -5.772000000     2.890000000
C    -2.565000000    -4.854000000     1.870000000
C    -2.507000000    -5.152000000     0.502000000
H    -2.191000000    -6.148000000     0.204000000
C    -2.829000000    -4.192000000    -0.477000000
O    -2.514000000    -4.485000000    -1.845000000
C    -3.408000000    -4.205000000    -2.874000000
C    -2.958000000    -3.382000000    -3.949000000
H    -1.978000000    -2.935000000    -4.095000000
C    -4.710000000    -4.730000000    -2.932000000
H    -5.039000000    -5.429000000    -2.167000000
C    -5.495000000    -4.511000000    -4.060000000
H    -6.408000000    -5.097000000    -4.121000000
C    -5.057000000    -3.761000000    -5.136000000
H    -5.655000000    -3.566000000    -6.023000000
C    -3.754000000    -3.234000000    -5.104000000
O    -3.504000000    -2.270000000    -6.091000000
C    -2.761000000    -1.105000000    -5.892000000
C    -1.793000000    -0.816000000    -6.867000000
H    -1.673000000    -1.504000000    -7.700000000
C    -0.864000000     0.206000000    -6.628000000
O     0.171000000     0.496000000    -7.480000000
C     1.466000000     0.801000000    -6.936000000
C     1.851000000     0.039000000    -5.818000000
H     1.209000000    -0.631000000    -5.252000000
C     2.320000000     1.551000000    -7.664000000
H     1.974000000     2.155000000    -8.499000000
C     3.686000000     1.560000000    -7.272000000
H     4.415000000     2.140000000    -7.832000000
C     4.100000000     0.961000000    -6.120000000
H     5.128000000     0.861000000    -5.781000000
C     3.169000000     0.185000000    -5.349000000
O     3.631000000    -0.528000000    -4.331000000
C     3.887000000     0.088000000    -3.173000000
C     4.987000000    -0.353000000    -2.462000000
H     5.669000000    -1.165000000    -2.700000000
C     5.327000000     0.224000000    -1.276000000
O     6.497000000    -0.245000000    -0.642000000
C     6.789000000    -0.496000000     0.689000000
C     7.796000000     0.167000000     1.411000000
H     8.332000000     0.873000000     0.782000000
C     8.027000000    -0.142000000     2.746000000
H     8.899000000     0.290000000     3.230000000
C     7.242000000    -1.057000000     3.406000000
H     7.428000000    -1.347000000     4.438000000
C     6.173000000    -1.596000000     2.728000000
C     5.892000000    -1.384000000     1.353000000
H     5.127000000    -1.861000000     0.745000000
C     1.543000000    -1.244000000    -0.339000000
H     2.446000000    -1.843000000    -0.258000000
C     1.224000000    -0.209000000     0.543000000
H     1.869000000     0.002000000     1.393000000
C     0.091000000     0.549000000     0.409000000
H    -0.046000000     1.411000000     1.085000000
C    -0.714000000     0.327000000    -0.627000000
H    -1.606000000     0.944000000    -0.703000000
C    -0.453000000    -0.708000000    -1.510000000
H    -1.217000000    -0.942000000    -2.247000000
C     0.660000000    -1.518000000    -1.346000000
C     0.879000000    -2.614000000    -2.361000000
O     0.195000000    -2.725000000    -3.353000000
O     1.793000000    -3.366000000    -2.165000000
O     4.515000000    -3.375000000    -6.980000000
H     4.446000000    -3.365000000    -6.026000000
H     3.636000000    -3.150000000    -7.286000000
O     2.557000000    -3.630000000    -4.813000000
H     1.978000000    -3.019000000    -5.269000000
H     2.366000000    -3.493000000    -3.885000000
O     0.187000000    -6.044000000    -2.498000000
H     0.740000000    -5.273000000    -2.372000000
H     0.136000000    -6.151000000    -3.448000000
O    -1.812000000    -5.537000000    -8.292000000
H    -1.611000000    -4.656000000    -7.974000000
H    -0.964000000    -5.980000000    -8.320000000
O     5.388000000    -5.555000000     2.603000000
H     5.366000000    -5.392000000     1.660000000
H     6.076000000    -4.976000000     2.931000000
O    -3.525000000    -8.068000000    -3.340000000
H    -4.416000000    -8.313000000    -3.590000000
H    -3.322000000    -7.311000000    -3.890000000
O     4.204000000    -4.944000000    -2.725000000
H     4.508000000    -4.357000000    -3.417000000
H     3.362000000    -4.579000000    -2.453000000
O     1.889000000    -8.342000000    -2.355000000
H     2.727000000    -8.317000000    -2.817000000
H     1.381000000    -7.629000000    -2.743000000
O     2.461000000    -6.288000000     1.630000000
H     2.029000000    -5.632000000     1.083000000
H     3.358000000    -5.966000000     1.725000000
O    -2.460000000    -6.614000000    -5.689000000
H    -1.667000000    -6.182000000    -5.372000000
H    -2.383000000    -6.587000000    -6.642000000
O     0.098000000    -7.925000000    -0.564000000
H    -0.027000000    -7.086000000    -1.007000000
H     0.868000000    -8.306000000    -0.985000000
O     0.377000000    -6.456000000    -5.214000000
H     1.308000000    -6.523000000    -5.427000000
H     0.173000000    -5.527000000    -5.323000000
O     0.984000000    -4.450000000     0.102000000
H     1.440000000    -4.035000000    -0.630000000
H     0.323000000    -3.811000000     0.366000000
O     3.036000000    -6.375000000    -5.935000000
H     3.173000000    -5.433000000    -5.835000000
H     3.903000000    -6.758000000    -5.804000000
O     5.207000000    -5.257000000    -0.123000000
H     4.737000000    -5.019000000    -0.922000000
H     6.048000000    -4.806000000    -0.197000000
O     4.694000000    -7.906000000    -3.173000000
H     4.549000000    -6.962000000    -3.112000000
H     4.803000000    -8.072000000    -4.110000000
O    -0.215000000    -3.886000000    -6.050000000
H     0.403000000    -3.433000000    -6.622000000
H    -0.161000000    -3.416000000    -5.218000000
O     5.812000000    -3.147000000    -4.434000000
H     6.467000000    -3.811000000    -4.219000000
H     6.314000000    -2.434000000    -4.828000000
O     1.745000000    -2.982000000    -7.963000000
H     1.927000000    -2.085000000    -8.243000000
H     1.784000000    -3.497000000    -8.769000000
