215
-1432.52389
C    -4.183000000    -2.338000000     0.371000000
H    -4.155000000    -1.690000000    -0.502000000
C    -4.302000000    -1.783000000     1.611000000
C    -4.219000000    -2.709000000     2.658000000
H    -4.195000000    -2.375000000     3.692000000
C    -4.059000000    -0.261000000     1.667000000
O    -4.842000000     0.499000000     0.737000000
H    -3.011000000    -0.019000000     1.435000000
O    -4.221000000     0.290000000     2.944000000
C    -3.183000000     1.103000000     3.355000000
C    -2.168000000     0.525000000     4.091000000
H    -2.254000000    -0.503000000     4.433000000
C    -1.014000000     1.265000000     4.352000000
O     0.131000000     0.569000000     4.789000000
C    -0.979000000     2.612000000     4.051000000
C     0.218000000     3.439000000     4.414000000
H    -0.076000000     4.481000000     4.555000000
C     1.318000000     3.368000000     3.342000000
C     1.267000000     4.265000000     2.286000000
H     0.513000000     5.045000000     2.355000000
H     0.689000000     3.098000000     5.339000000
C    -2.042000000     3.206000000     3.301000000
H    -1.977000000     4.237000000     2.963000000
C    -3.122000000     2.500000000     2.941000000
C    -4.188000000     3.087000000     2.030000000
H    -4.319000000     4.165000000     2.152000000
H    -5.156000000     2.679000000     2.327000000
C    -3.917000000     2.738000000     0.597000000
C    -3.315000000     3.783000000    -0.164000000
H    -3.130000000     4.733000000     0.329000000
C    -4.321000000     1.513000000     0.024000000
C    -4.007000000     1.299000000    -1.323000000
H    -4.249000000     0.353000000    -1.801000000
C    -3.381000000     2.321000000    -2.079000000
O    -3.090000000     2.056000000    -3.369000000
C    -1.711000000     1.581000000    -3.545000000
C    -1.743000000     0.365000000    -4.506000000
C    -0.630000000     0.130000000    -5.294000000
H     0.181000000     0.850000000    -5.219000000
C    -2.870000000    -0.449000000    -4.617000000
H    -3.708000000    -0.366000000    -3.931000000
O    -0.981000000     2.740000000    -4.089000000
H    -1.265000000     1.331000000    -2.571000000
C    -3.004000000     3.565000000    -1.515000000
C    -2.309000000     4.649000000    -2.374000000
H    -2.572000000     5.682000000    -2.138000000
H    -2.773000000     4.575000000    -3.360000000
C    -0.840000000     4.316000000    -2.329000000
C    -0.124000000     4.842000000    -1.250000000
H    -0.691000000     5.517000000    -0.613000000
C    -0.288000000     3.360000000    -3.114000000
C     1.037000000     3.104000000    -3.030000000
H     1.501000000     2.402000000    -3.718000000
C     1.859000000     3.738000000    -2.056000000
O     3.179000000     3.193000000    -2.017000000
C     3.450000000     2.179000000    -0.975000000
C     4.288000000     1.071000000    -1.510000000
C     4.114000000     0.687000000    -2.887000000
H     3.481000000     1.142000000    -3.645000000
C     5.196000000     0.356000000    -0.742000000
H     5.241000000     0.615000000     0.313000000
O     3.979000000     2.856000000     0.154000000
H     2.528000000     1.717000000    -0.592000000
C     1.225000000     4.536000000    -1.103000000
C     2.032000000     5.106000000     0.034000000
H     1.498000000     6.019000000     0.303000000
H     3.054000000     5.367000000    -0.249000000
C     2.170000000     4.196000000     1.209000000
C     3.135000000     3.185000000     1.249000000
C     3.184000000     2.235000000     2.249000000
H     3.954000000     1.469000000     2.257000000
C     2.323000000     2.383000000     3.371000000
O     2.280000000     1.331000000     4.222000000
C     1.249000000     0.363000000     3.933000000
H     0.847000000     0.495000000     2.917000000
C     1.900000000    -1.013000000     4.151000000
C     0.957000000    -2.048000000     4.486000000
H    -0.090000000    -1.841000000     4.690000000
C     3.246000000    -1.308000000     3.974000000
H     3.955000000    -0.565000000     3.619000000
C     3.704000000    -2.596000000     4.107000000
O     5.019000000    -2.994000000     3.867000000
C     2.765000000    -3.577000000     4.513000000
H     3.099000000    -4.607000000     4.609000000
C     1.412000000    -3.321000000     4.654000000
O     0.520000000    -4.337000000     4.725000000
C    -0.798000000    -4.267000000     5.129000000
C    -1.719000000    -4.841000000     4.261000000
H    -1.306000000    -5.294000000     3.364000000
C    -1.193000000    -3.684000000     6.345000000
H    -0.494000000    -3.251000000     7.055000000
C    -2.512000000    -3.729000000     6.709000000
H    -2.777000000    -3.212000000     7.628000000
C    -3.481000000    -4.128000000     5.773000000
H    -4.536000000    -3.979000000     5.991000000
C    -3.077000000    -4.652000000     4.535000000
O    -3.889000000    -5.054000000     3.502000000
C    -4.016000000    -4.146000000     2.482000000
C    -3.964000000    -4.529000000     1.197000000
H    -3.799000000    -5.584000000     0.998000000
C    -3.966000000    -3.653000000     0.171000000
O    -3.853000000    -4.094000000    -1.117000000
C    -4.522000000    -3.580000000    -2.248000000
C    -3.905000000    -3.214000000    -3.415000000
H    -2.820000000    -3.155000000    -3.392000000
C    -5.972000000    -3.635000000    -2.201000000
H    -6.413000000    -4.006000000    -1.279000000
C    -6.689000000    -3.241000000    -3.354000000
H    -7.773000000    -3.323000000    -3.358000000
C    -6.005000000    -2.740000000    -4.474000000
H    -6.446000000    -2.535000000    -5.446000000
C    -4.579000000    -2.763000000    -4.511000000
O    -3.952000000    -2.356000000    -5.632000000
C    -2.861000000    -1.469000000    -5.567000000
C    -1.674000000    -1.677000000    -6.319000000
H    -1.660000000    -2.546000000    -6.972000000
C    -0.537000000    -0.960000000    -6.129000000
O     0.641000000    -1.269000000    -6.816000000
C     1.857000000    -0.691000000    -6.668000000
C     2.719000000    -1.034000000    -5.661000000
H     2.389000000    -1.624000000    -4.810000000
C     2.291000000     0.110000000    -7.740000000
H     1.601000000     0.379000000    -8.536000000
C     3.568000000     0.733000000    -7.747000000
H     3.815000000     1.402000000    -8.567000000
C     4.331000000     0.488000000    -6.657000000
H     5.313000000     0.954000000    -6.630000000
C     3.960000000    -0.425000000    -5.640000000
O     4.812000000    -0.785000000    -4.638000000
C     4.868000000    -0.367000000    -3.326000000
C     5.688000000    -1.124000000    -2.526000000
H     6.242000000    -1.960000000    -2.944000000
C     5.876000000    -0.722000000    -1.229000000
O     6.642000000    -1.492000000    -0.424000000
C     6.635000000    -1.549000000     0.911000000
C     7.745000000    -0.941000000     1.570000000
H     8.470000000    -0.344000000     1.023000000
C     7.795000000    -1.019000000     2.977000000
H     8.585000000    -0.440000000     3.449000000
C     6.863000000    -1.662000000     3.717000000
H     6.903000000    -1.759000000     4.799000000
C     5.851000000    -2.288000000     3.077000000
C     5.723000000    -2.282000000     1.666000000
H     4.925000000    -2.798000000     1.138000000
C     2.219000000    -1.575000000    -0.909000000
H     3.295000000    -1.531000000    -1.058000000
C     1.645000000    -0.743000000     0.102000000
H     2.365000000    -0.199000000     0.708000000
C     0.244000000    -0.554000000     0.222000000
H    -0.112000000     0.126000000     0.937000000
C    -0.576000000    -1.323000000    -0.579000000
H    -1.659000000    -1.240000000    -0.538000000
C     0.036000000    -2.244000000    -1.465000000
H    -0.652000000    -2.881000000    -2.016000000
C     1.423000000    -2.319000000    -1.722000000
C     2.016000000    -3.333000000    -2.630000000
O     1.257000000    -3.719000000    -3.496000000
O     3.140000000    -3.716000000    -2.484000000
O     3.467000000    -5.800000000    -8.656000000
H     4.350000000    -6.030000000    -8.367000000
H     2.928000000    -5.884000000    -7.870000000
O     2.284000000    -6.654000000    -0.565000000
H     1.527000000    -6.489000000    -0.004000000
H     2.964000000    -6.071000000    -0.228000000
O     2.319000000    -6.223000000    -3.459000000
H     2.484000000    -6.496000000    -2.557000000
H     2.168000000    -5.280000000    -3.400000000
O    -0.863000000    -5.962000000    -3.105000000
H    -0.115000000    -5.518000000    -3.504000000
H    -0.935000000    -5.572000000    -2.234000000
O     4.657000000    -4.890000000    -0.606000000
H     4.048000000    -4.478000000    -1.219000000
H     5.024000000    -5.628000000    -1.093000000
O    -3.277000000    -6.982000000    -3.713000000
H    -3.006000000    -7.888000000    -3.860000000
H    -2.467000000    -6.477000000    -3.771000000
O     4.415000000    -4.076000000    -4.739000000
H     5.306000000    -3.870000000    -4.456000000
H     3.866000000    -3.847000000    -3.989000000
O     2.583000000    -8.525000000     1.559000000
H     2.846000000    -7.833000000     0.952000000
H     2.606000000    -8.109000000     2.421000000
O     2.844000000    -9.117000000    -2.514000000
H     3.448000000    -8.422000000    -2.253000000
H     2.058000000    -8.655000000    -2.805000000
O     4.606000000    -6.147000000     1.947000000
H     4.401000000    -5.636000000     1.164000000
H     5.312000000    -6.733000000     1.673000000
O    -1.603000000    -5.337000000    -7.126000000
H    -1.446000000    -6.225000000    -7.447000000
H    -0.827000000    -5.131000000    -6.604000000
O    -0.157000000    -3.937000000     0.807000000
H    -0.440000000    -3.296000000     0.155000000
H     0.367000000    -3.432000000     1.428000000
O     7.342000000    -4.799000000    -0.654000000
H     6.407000000    -4.594000000    -0.643000000
H     7.422000000    -5.521000000    -1.277000000
O     5.450000000    -7.214000000    -1.671000000
H     5.786000000    -7.736000000    -2.399000000
H     5.633000000    -7.741000000    -0.894000000
O    -1.303000000    -9.281000000    -2.028000000
H    -0.821000000    -8.463000000    -1.902000000
H    -1.507000000    -9.297000000    -2.963000000
O     4.092000000    -6.593000000    -5.539000000
H     4.646000000    -5.924000000    -5.941000000
H     3.718000000    -6.164000000    -4.770000000
O     0.666000000    -4.960000000    -5.651000000
H     1.067000000    -5.786000000    -5.380000000
H     0.879000000    -4.348000000    -4.946000000
O     5.895000000    -3.239000000    -7.334000000
H     6.315000000    -2.379000000    -7.359000000
H     5.184000000    -3.140000000    -6.700000000
O    -0.709000000    -6.444000000     0.222000000
H    -0.634000000    -5.504000000     0.385000000
H    -1.160000000    -6.787000000     0.994000000
