215
-1432.79554
C    -3.652000000    -2.627000000    -1.431000000
H    -3.751000000    -1.776000000    -2.100000000
C    -3.882000000    -2.418000000    -0.022000000
C    -3.974000000    -3.535000000     0.813000000
H    -4.057000000    -3.253000000     1.860000000
C    -4.183000000    -1.027000000     0.484000000
O    -4.777000000    -0.223000000    -0.539000000
H    -3.203000000    -0.551000000     0.631000000
O    -4.849000000    -0.888000000     1.785000000
C    -4.061000000    -0.137000000     2.675000000
C    -3.053000000    -0.765000000     3.384000000
H    -2.886000000    -1.832000000     3.266000000
C    -2.131000000     0.045000000     4.079000000
O    -1.143000000    -0.544000000     4.839000000
C    -2.297000000     1.431000000     4.046000000
C    -1.444000000     2.402000000     4.820000000
H    -1.995000000     3.339000000     4.926000000
C    -0.143000000     2.692000000     4.147000000
C     0.067000000     3.815000000     3.300000000
H    -0.763000000     4.468000000     3.044000000
H    -1.249000000     1.979000000     5.807000000
C    -3.182000000     2.052000000     3.218000000
H    -3.281000000     3.113000000     3.003000000
C    -4.053000000     1.270000000     2.481000000
C    -4.999000000     1.914000000     1.504000000
H    -5.327000000     2.904000000     1.826000000
H    -5.921000000     1.330000000     1.485000000
C    -4.474000000     2.124000000     0.084000000
C    -3.760000000     3.349000000    -0.154000000
H    -3.799000000     4.183000000     0.542000000
C    -4.411000000     1.080000000    -0.868000000
C    -3.917000000     1.284000000    -2.178000000
H    -3.787000000     0.521000000    -2.941000000
C    -3.211000000     2.490000000    -2.376000000
O    -2.634000000     2.631000000    -3.571000000
C    -1.178000000     2.439000000    -3.679000000
C    -0.681000000     1.610000000    -4.870000000
C     0.608000000     1.872000000    -5.402000000
H     1.284000000     2.617000000    -4.990000000
C    -1.379000000     0.588000000    -5.394000000
H    -2.367000000     0.410000000    -4.977000000
O    -0.659000000     3.804000000    -3.581000000
H    -0.833000000     1.853000000    -2.814000000
C    -3.115000000     3.459000000    -1.353000000
C    -2.506000000     4.782000000    -1.664000000
H    -2.930000000     5.590000000    -1.065000000
H    -2.624000000     5.155000000    -2.684000000
C    -1.011000000     4.719000000    -1.396000000
C    -0.492000000     5.126000000    -0.146000000
H    -1.228000000     5.459000000     0.581000000
C    -0.156000000     4.147000000    -2.290000000
C     1.152000000     3.976000000    -1.999000000
H     1.810000000     3.509000000    -2.728000000
C     1.633000000     4.252000000    -0.711000000
O     2.862000000     3.797000000    -0.428000000
C     2.962000000     2.679000000     0.481000000
C     4.014000000     1.646000000     0.045000000
C     4.043000000     1.232000000    -1.267000000
H     3.300000000     1.601000000    -1.970000000
C     4.870000000     1.013000000     0.924000000
H     4.961000000     1.458000000     1.912000000
O     3.295000000     3.091000000     1.835000000
H     1.983000000     2.177000000     0.511000000
C     0.831000000     4.939000000     0.187000000
C     1.295000000     5.214000000     1.594000000
H     0.643000000     6.015000000     1.950000000
H     2.339000000     5.535000000     1.599000000
C     1.230000000     4.060000000     2.605000000
C     2.289000000     3.168000000     2.764000000
C     2.111000000     1.993000000     3.554000000
H     2.891000000     1.236000000     3.559000000
C     0.920000000     1.847000000     4.270000000
O     0.844000000     0.640000000     4.975000000
C     0.182000000    -0.429000000     4.337000000
H    -0.024000000    -0.186000000     3.284000000
C     0.906000000    -1.763000000     4.305000000
C     0.203000000    -2.988000000     4.143000000
H    -0.877000000    -3.039000000     4.028000000
C     2.294000000    -1.815000000     4.337000000
H     2.894000000    -0.917000000     4.459000000
C     2.957000000    -3.097000000     4.372000000
O     4.256000000    -3.239000000     4.257000000
C     2.254000000    -4.309000000     4.294000000
H     2.775000000    -5.255000000     4.171000000
C     0.840000000    -4.251000000     4.119000000
O     0.200000000    -5.428000000     3.770000000
C    -1.149000000    -5.581000000     3.650000000
C    -1.710000000    -5.728000000     2.418000000
H    -1.141000000    -5.717000000     1.493000000
C    -1.902000000    -5.617000000     4.796000000
H    -1.493000000    -5.494000000     5.796000000
C    -3.243000000    -5.978000000     4.802000000
H    -3.815000000    -5.996000000     5.726000000
C    -3.814000000    -6.161000000     3.564000000
H    -4.881000000    -6.368000000     3.572000000
C    -3.066000000    -5.929000000     2.353000000
O    -3.803000000    -5.905000000     1.173000000
C    -3.706000000    -4.786000000     0.317000000
C    -3.388000000    -4.933000000    -0.985000000
H    -3.335000000    -5.962000000    -1.331000000
C    -3.331000000    -3.911000000    -1.906000000
O    -3.204000000    -4.148000000    -3.264000000
C    -3.468000000    -3.223000000    -4.253000000
C    -2.402000000    -2.663000000    -4.999000000
H    -1.373000000    -2.803000000    -4.679000000
C    -4.719000000    -3.129000000    -4.764000000
H    -5.569000000    -3.653000000    -4.336000000
C    -4.978000000    -2.531000000    -6.002000000
H    -5.999000000    -2.433000000    -6.362000000
C    -3.865000000    -1.922000000    -6.667000000
H    -4.039000000    -1.252000000    -7.506000000
C    -2.600000000    -1.937000000    -6.135000000
O    -1.581000000    -1.255000000    -6.838000000
C    -0.892000000    -0.214000000    -6.342000000
C     0.309000000     0.051000000    -7.001000000
H     0.652000000    -0.546000000    -7.842000000
C     1.076000000     1.063000000    -6.487000000
O     2.318000000     1.377000000    -6.970000000
C     3.328000000     1.497000000    -6.098000000
C     3.545000000     0.637000000    -5.038000000
H     2.727000000    -0.027000000    -4.768000000
C     4.278000000     2.449000000    -6.396000000
H     4.043000000     3.018000000    -7.292000000
C     5.399000000     2.643000000    -5.564000000
H     6.246000000     3.290000000    -5.777000000
C     5.621000000     1.707000000    -4.514000000
H     6.557000000     1.666000000    -3.962000000
C     4.692000000     0.698000000    -4.227000000
O     4.899000000    -0.156000000    -3.143000000
C     4.946000000     0.271000000    -1.776000000
C     5.781000000    -0.416000000    -0.848000000
H     6.351000000    -1.287000000    -1.160000000
C     5.775000000     0.017000000     0.505000000
O     6.790000000    -0.456000000     1.323000000
C     6.551000000    -0.875000000     2.588000000
C     7.501000000    -0.725000000     3.585000000
H     8.312000000    -0.005000000     3.520000000
C     7.243000000    -1.362000000     4.765000000
H     7.907000000    -1.184000000     5.607000000
C     6.104000000    -2.070000000     5.110000000
H     5.919000000    -2.411000000     6.125000000
C     5.246000000    -2.315000000     4.028000000
C     5.589000000    -1.861000000     2.775000000
H     5.014000000    -2.267000000     1.947000000
C     1.885000000    -1.521000000    -0.409000000
H     2.873000000    -1.828000000    -0.076000000
C     1.007000000    -0.926000000     0.477000000
H     1.185000000    -1.017000000     1.545000000
C    -0.156000000    -0.374000000    -0.056000000
H    -0.874000000    -0.104000000     0.727000000
C    -0.499000000    -0.452000000    -1.388000000
H    -1.496000000    -0.143000000    -1.693000000
C     0.396000000    -1.006000000    -2.254000000
H     0.024000000    -1.136000000    -3.267000000
C     1.629000000    -1.528000000    -1.843000000
C     2.447000000    -2.413000000    -2.770000000
O     1.910000000    -2.905000000    -3.764000000
O     3.475000000    -2.843000000    -2.383000000
O     2.979000000    -5.325000000    -3.782000000
H     3.704000000    -4.993000000    -3.253000000
H     2.466000000    -4.547000000    -4.000000000
O     6.336000000    -4.070000000    -7.336000000
H     5.620000000    -3.434000000    -7.325000000
H     7.066000000    -3.601000000    -7.742000000
O     5.543000000    -6.714000000    -0.983000000
H     5.179000000    -6.026000000    -0.426000000
H     5.239000000    -7.530000000    -0.585000000
O     3.612000000    -4.472000000    -0.114000000
H     2.668000000    -4.609000000    -0.045000000
H     3.705000000    -3.742000000    -0.726000000
O     3.016000000    -7.857000000    -2.908000000
H     3.105000000    -6.914000000    -3.044000000
H     3.834000000    -8.226000000    -3.240000000
O     1.055000000    -8.100000000    -0.836000000
H     1.882000000    -8.297000000    -1.277000000
H     0.583000000    -7.540000000    -1.452000000
O     1.964000000    -7.599000000    -5.520000000
H     2.566000000    -8.301000000    -5.767000000
H     2.050000000    -7.534000000    -4.568000000
O     0.364000000    -4.096000000    -7.647000000
H    -0.407000000    -4.567000000    -7.332000000
H     1.103000000    -4.650000000    -7.393000000
O     0.919000000    -5.020000000     0.148000000
H     0.522000000    -4.154000000     0.235000000
H     0.532000000    -5.382000000    -0.650000000
O     6.893000000    -5.212000000    -4.714000000
H     6.450000000    -4.420000000    -5.019000000
H     6.442000000    -5.927000000    -5.164000000
O    -0.225000000    -5.706000000    -2.120000000
H     0.362000000    -5.161000000    -2.644000000
H    -0.756000000    -6.175000000    -2.764000000
O     7.580000000    -3.870000000     0.022000000
H     7.053000000    -3.751000000    -0.768000000
H     8.144000000    -3.097000000     0.052000000
O     4.615000000    -3.247000000    -4.906000000
H     3.839000000    -3.366000000    -5.453000000
H     4.270000000    -2.960000000    -4.060000000
O     7.813000000    -0.799000000    -3.475000000
H     7.525000000    -0.265000000    -4.216000000
H     7.142000000    -1.477000000    -3.393000000
O     5.958000000    -3.443000000    -2.276000000
H     5.109000000    -3.004000000    -2.228000000
H     5.806000000    -4.199000000    -2.844000000
O     2.241000000    -5.903000000    -7.537000000
H     3.117000000    -6.191000000    -7.793000000
H     2.029000000    -6.434000000    -6.769000000
O     6.728000000    -0.799000000    -6.178000000
H     7.069000000    -1.585000000    -6.604000000
H     5.844000000    -0.699000000    -6.532000000
O     2.270000000    -2.281000000    -6.331000000
H     1.630000000    -2.804000000    -6.814000000
H     2.013000000    -2.374000000    -5.414000000
O     4.291000000    -1.079000000    -7.633000000
H     4.083000000    -0.166000000    -7.834000000
H     3.500000000    -1.418000000    -7.215000000
