215
-1437.62793
C    -3.980000000    -2.838000000    -1.053000000
H    -4.055000000    -1.975000000    -1.709000000
C    -3.756000000    -2.557000000     0.247000000
C    -3.552000000    -3.664000000     1.068000000
H    -3.320000000    -3.436000000     2.105000000
C    -3.920000000    -1.109000000     0.753000000
O    -4.711000000    -0.329000000    -0.191000000
H    -2.907000000    -0.682000000     0.749000000
O    -4.445000000    -1.068000000     2.062000000
C    -3.676000000    -0.353000000     2.960000000
C    -2.640000000    -0.973000000     3.605000000
H    -2.605000000    -2.059000000     3.645000000
C    -1.684000000    -0.190000000     4.242000000
O    -0.575000000    -0.766000000     4.733000000
C    -1.779000000     1.184000000     4.226000000
C    -0.674000000     2.018000000     4.927000000
H    -1.098000000     2.969000000     5.256000000
C     0.527000000     2.291000000     4.025000000
C     0.600000000     3.553000000     3.490000000
H    -0.208000000     4.256000000     3.680000000
H    -0.298000000     1.526000000     5.826000000
C    -2.843000000     1.802000000     3.586000000
H    -2.890000000     2.866000000     3.368000000
C    -3.838000000     1.041000000     2.984000000
C    -4.866000000     1.778000000     2.117000000
H    -5.215000000     2.747000000     2.478000000
H    -5.735000000     1.124000000     2.011000000
C    -4.361000000     1.998000000     0.766000000
C    -3.830000000     3.239000000     0.485000000
H    -3.805000000     3.994000000     1.266000000
C    -4.331000000     1.015000000    -0.279000000
C    -3.868000000     1.349000000    -1.540000000
H    -3.917000000     0.652000000    -2.373000000
C    -3.321000000     2.618000000    -1.827000000
O    -2.714000000     2.754000000    -3.066000000
C    -1.292000000     2.504000000    -3.062000000
C    -0.975000000     1.718000000    -4.313000000
C     0.337000000     1.681000000    -4.891000000
H     1.055000000     2.433000000    -4.573000000
C    -1.685000000     0.523000000    -4.543000000
H    -2.602000000     0.305000000    -4.003000000
O    -0.861000000     3.833000000    -3.104000000
H    -1.027000000     1.983000000    -2.130000000
C    -3.281000000     3.511000000    -0.783000000
C    -2.550000000     4.817000000    -1.027000000
H    -2.911000000     5.491000000    -0.246000000
H    -2.806000000     5.353000000    -1.943000000
C    -1.026000000     4.730000000    -0.894000000
C    -0.407000000     5.012000000     0.312000000
H    -0.998000000     5.216000000     1.200000000
C    -0.209000000     4.335000000    -2.006000000
C     1.125000000     4.143000000    -1.866000000
H     1.687000000     3.643000000    -2.651000000
C     1.774000000     4.564000000    -0.694000000
O     3.064000000     4.206000000    -0.628000000
C     3.242000000     3.022000000     0.160000000
C     4.325000000     2.059000000    -0.502000000
C     4.596000000     2.107000000    -1.881000000
H     4.078000000     2.842000000    -2.490000000
C     5.103000000     1.199000000     0.266000000
H     5.068000000     1.128000000     1.350000000
O     3.647000000     3.345000000     1.472000000
H     2.311000000     2.438000000     0.206000000
C     0.980000000     4.984000000     0.415000000
C     1.506000000     5.271000000     1.828000000
H     0.912000000     6.026000000     2.348000000
H     2.544000000     5.584000000     1.697000000
C     1.653000000     3.970000000     2.700000000
C     2.694000000     3.067000000     2.513000000
C     2.728000000     1.853000000     3.117000000
H     3.608000000     1.217000000     3.063000000
C     1.605000000     1.417000000     3.897000000
O     1.576000000     0.152000000     4.443000000
C     0.603000000    -0.756000000     3.880000000
H     0.365000000    -0.458000000     2.848000000
C     1.134000000    -2.131000000     3.745000000
C     0.578000000    -3.263000000     4.310000000
H    -0.310000000    -3.191000000     4.934000000
C     2.138000000    -2.316000000     2.926000000
H     2.521000000    -1.447000000     2.397000000
C     2.709000000    -3.540000000     2.655000000
O     3.811000000    -3.632000000     1.841000000
C     2.202000000    -4.680000000     3.212000000
H     2.545000000    -5.652000000     2.867000000
C     1.102000000    -4.499000000     4.097000000
O     0.457000000    -5.595000000     4.538000000
C    -0.861000000    -5.777000000     4.222000000
C    -1.248000000    -5.865000000     2.930000000
H    -0.524000000    -5.784000000     2.124000000
C    -1.826000000    -5.709000000     5.250000000
H    -1.431000000    -5.621000000     6.258000000
C    -3.165000000    -5.739000000     4.950000000
H    -3.923000000    -5.621000000     5.720000000
C    -3.549000000    -5.878000000     3.581000000
H    -4.608000000    -5.927000000     3.342000000
C    -2.616000000    -5.977000000     2.606000000
O    -3.015000000    -6.049000000     1.292000000
C    -3.483000000    -4.983000000     0.555000000
C    -3.879000000    -5.242000000    -0.745000000
H    -3.889000000    -6.278000000    -1.072000000
C    -4.050000000    -4.157000000    -1.620000000
O    -4.387000000    -4.339000000    -2.976000000
C    -4.443000000    -3.362000000    -3.963000000
C    -3.216000000    -2.843000000    -4.475000000
H    -2.303000000    -3.284000000    -4.084000000
C    -5.624000000    -2.905000000    -4.475000000
H    -6.591000000    -3.305000000    -4.182000000
C    -5.626000000    -2.051000000    -5.576000000
H    -6.566000000    -1.660000000    -5.957000000
C    -4.399000000    -1.467000000    -6.004000000
H    -4.439000000    -0.746000000    -6.816000000
C    -3.195000000    -1.836000000    -5.410000000
O    -2.015000000    -1.406000000    -5.989000000
C    -1.380000000    -0.251000000    -5.691000000
C    -0.169000000    -0.200000000    -6.308000000
H     0.076000000    -0.880000000    -7.119000000
C     0.761000000     0.741000000    -5.859000000
O     2.047000000     0.679000000    -6.414000000
C     3.039000000     1.524000000    -6.012000000
C     3.920000000     1.010000000    -5.044000000
H     3.770000000     0.058000000    -4.541000000
C     3.227000000     2.771000000    -6.591000000
H     2.552000000     3.185000000    -7.336000000
C     4.363000000     3.522000000    -6.286000000
H     4.584000000     4.482000000    -6.746000000
C     5.204000000     3.028000000    -5.307000000
H     6.087000000     3.545000000    -4.939000000
C     4.996000000     1.847000000    -4.685000000
O     5.946000000     1.458000000    -3.717000000
C     5.577000000     1.262000000    -2.423000000
C     6.343000000     0.415000000    -1.622000000
H     7.239000000    -0.057000000    -2.016000000
C     6.057000000     0.389000000    -0.255000000
O     6.935000000    -0.361000000     0.528000000
C     6.443000000    -1.212000000     1.534000000
C     6.833000000    -0.973000000     2.817000000
H     7.602000000    -0.225000000     2.989000000
C     6.380000000    -1.891000000     3.826000000
H     6.597000000    -1.832000000     4.890000000
C     5.450000000    -2.869000000     3.458000000
H     5.140000000    -3.568000000     4.231000000
C     4.916000000    -2.965000000     2.149000000
C     5.393000000    -2.076000000     1.189000000
H     4.837000000    -2.104000000     0.256000000
C     2.167000000    -1.455000000    -1.568000000
H     3.247000000    -1.387000000    -1.466000000
C     1.350000000    -0.965000000    -0.525000000
H     1.660000000    -0.612000000     0.455000000
C    -0.046000000    -0.939000000    -0.688000000
H    -0.640000000    -0.544000000     0.140000000
C    -0.557000000    -1.291000000    -1.913000000
H    -1.625000000    -1.172000000    -2.076000000
C     0.237000000    -1.929000000    -2.914000000
H    -0.175000000    -2.264000000    -3.862000000
C     1.621000000    -1.981000000    -2.745000000
C     2.556000000    -2.419000000    -3.852000000
O     2.106000000    -3.225000000    -4.686000000
O     3.746000000    -2.321000000    -3.679000000
O     0.528000000    -5.706000000    -4.363000000
H     0.497000000    -6.171000000    -5.199000000
H     1.076000000    -4.941000000    -4.535000000
O     3.658000000    -5.548000000    -4.352000000
H     3.511000000    -5.758000000    -3.430000000
H     3.197000000    -4.720000000    -4.486000000
O     5.495000000    -7.538000000    -4.626000000
H     4.820000000    -6.944000000    -4.300000000
H     5.309000000    -7.623000000    -5.561000000
O     2.035000000    -7.769000000    -6.450000000
H     2.514000000    -8.381000000    -7.009000000
H     2.712000000    -7.211000000    -6.070000000
O     0.057000000    -2.798000000    -8.978000000
H    -0.815000000    -3.183000000    -8.898000000
H     0.570000000    -3.221000000    -8.290000000
O     1.040000000    -4.060000000    -0.230000000
H     0.184000000    -4.030000000     0.198000000
H     1.038000000    -3.309000000    -0.823000000
O     6.404000000    -4.716000000    -5.557000000
H     6.302000000    -5.646000000    -5.357000000
H     5.788000000    -4.276000000    -4.971000000
O     2.260000000    -8.099000000    -2.064000000
H     1.467000000    -8.194000000    -1.536000000
H     2.501000000    -7.178000000    -1.971000000
O    -1.138000000    -6.752000000    -2.625000000
H    -0.376000000    -6.433000000    -3.107000000
H    -1.881000000    -6.565000000    -3.200000000
O    -2.164000000    -3.759000000    -7.883000000
H    -1.996000000    -3.008000000    -7.314000000
H    -3.011000000    -4.096000000    -7.590000000
O     6.190000000    -1.315000000    -4.293000000
H     5.279000000    -1.583000000    -4.181000000
H     6.152000000    -0.362000000    -4.371000000
O     8.346000000    -3.211000000    -3.365000000
H     8.316000000    -2.374000000    -3.830000000
H     7.490000000    -3.279000000    -2.942000000
O     5.638000000    -3.368000000    -2.075000000
H     4.904000000    -3.009000000    -2.572000000
H     5.266000000    -4.112000000    -1.601000000
O     4.207000000    -4.967000000    -7.685000000
H     4.574000000    -5.825000000    -7.471000000
H     4.961000000    -4.378000000    -7.690000000
O     3.442000000    -5.456000000    -1.584000000
H     2.713000000    -5.060000000    -1.107000000
H     3.945000000    -5.918000000    -0.913000000
O     6.740000000    -1.457000000    -8.513000000
H     5.786000000    -1.392000000    -8.461000000
H     7.018000000    -1.626000000    -7.612000000
O     2.019000000    -3.448000000    -7.273000000
H     2.781000000    -4.023000000    -7.339000000
H     2.046000000    -3.117000000    -6.375000000
O     3.890000000    -1.319000000    -7.947000000
H     3.376000000    -0.751000000    -7.374000000
H     3.554000000    -2.199000000    -7.776000000
O     8.370000000    -1.015000000    -6.053000000
H     8.827000000    -1.841000000    -6.213000000
H     7.700000000    -1.233000000    -5.405000000
