215
-1447.94837
C    -2.988000000    -2.610000000    -1.764000000
H    -2.729000000    -1.717000000    -2.328000000
C    -3.583000000    -2.489000000    -0.501000000
C    -3.793000000    -3.632000000     0.266000000
H    -4.250000000    -3.688000000     1.251000000
C    -3.820000000    -1.135000000     0.024000000
O    -4.477000000    -0.285000000    -0.988000000
H    -2.843000000    -0.689000000     0.260000000
O    -4.661000000    -1.121000000     1.205000000
C    -4.238000000    -0.286000000     2.225000000
C    -3.530000000    -0.880000000     3.211000000
H    -3.483000000    -1.966000000     3.223000000
C    -2.755000000    -0.135000000     4.085000000
O    -1.787000000    -0.876000000     4.667000000
C    -2.761000000     1.258000000     3.966000000
C    -1.880000000     2.125000000     4.836000000
H    -2.371000000     3.080000000     5.036000000
C    -0.628000000     2.474000000     4.090000000
C    -0.390000000     3.704000000     3.455000000
H    -1.169000000     4.459000000     3.386000000
H    -1.723000000     1.653000000     5.808000000
C    -3.560000000     1.883000000     3.004000000
H    -3.764000000     2.949000000     3.074000000
C    -4.313000000     1.133000000     2.078000000
C    -5.091000000     1.832000000     1.049000000
H    -5.417000000     2.814000000     1.398000000
H    -6.023000000     1.315000000     0.811000000
C    -4.171000000     2.006000000    -0.132000000
C    -3.636000000     3.322000000    -0.299000000
H    -3.497000000     3.960000000     0.571000000
C    -4.110000000     1.052000000    -1.184000000
C    -3.491000000     1.381000000    -2.381000000
H    -3.431000000     0.649000000    -3.182000000
C    -2.940000000     2.670000000    -2.512000000
O    -2.304000000     2.918000000    -3.726000000
C    -0.908000000     2.651000000    -3.647000000
C    -0.260000000     1.974000000    -4.843000000
C     1.036000000     2.355000000    -5.356000000
H     1.576000000     3.198000000    -4.932000000
C    -0.901000000     0.927000000    -5.410000000
H    -1.885000000     0.582000000    -5.103000000
O    -0.239000000     3.922000000    -3.510000000
H    -0.716000000     2.080000000    -2.727000000
C    -3.046000000     3.698000000    -1.539000000
C    -2.323000000     5.026000000    -1.725000000
H    -2.761000000     5.814000000    -1.108000000
H    -2.518000000     5.357000000    -2.747000000
C    -0.870000000     4.850000000    -1.348000000
C    -0.446000000     5.155000000    -0.029000000
H    -1.170000000     5.505000000     0.702000000
C     0.115000000     4.324000000    -2.252000000
C     1.380000000     4.072000000    -1.756000000
H     2.112000000     3.642000000    -2.435000000
C     1.708000000     4.277000000    -0.418000000
O     2.900000000     3.865000000    -0.073000000
C     2.932000000     2.666000000     0.769000000
C     4.046000000     1.750000000     0.341000000
C     4.206000000     1.486000000    -0.997000000
H     3.531000000     1.985000000    -1.688000000
C     4.916000000     1.138000000     1.264000000
H     4.854000000     1.292000000     2.338000000
O     3.012000000     3.009000000     2.098000000
H     1.993000000     2.130000000     0.567000000
C     0.800000000     4.759000000     0.455000000
C     1.057000000     5.069000000     1.928000000
H     0.493000000     5.911000000     2.336000000
H     2.138000000     5.220000000     1.908000000
C     0.871000000     3.871000000     2.804000000
C     1.863000000     2.899000000     2.859000000
C     1.632000000     1.713000000     3.538000000
H     2.396000000     0.948000000     3.654000000
C     0.375000000     1.494000000     4.079000000
O     0.259000000     0.278000000     4.753000000
C    -0.492000000    -0.809000000     4.119000000
H    -0.441000000    -0.635000000     3.034000000
C     0.226000000    -2.173000000     4.201000000
C    -0.486000000    -3.407000000     4.269000000
H    -1.572000000    -3.412000000     4.310000000
C     1.609000000    -2.232000000     4.008000000
H     2.289000000    -1.393000000     3.876000000
C     2.329000000    -3.441000000     4.042000000
O     3.701000000    -3.688000000     3.848000000
C     1.634000000    -4.628000000     4.095000000
H     2.127000000    -5.596000000     4.056000000
C     0.203000000    -4.638000000     4.296000000
O    -0.456000000    -5.792000000     4.512000000
C    -1.614000000    -6.069000000     3.865000000
C    -1.909000000    -5.698000000     2.531000000
H    -1.108000000    -5.317000000     1.904000000
C    -2.585000000    -6.760000000     4.646000000
H    -2.406000000    -6.915000000     5.707000000
C    -3.841000000    -7.044000000     4.114000000
H    -4.644000000    -7.420000000     4.742000000
C    -4.076000000    -6.684000000     2.783000000
H    -5.002000000    -6.964000000     2.287000000
C    -3.077000000    -6.097000000     1.960000000
O    -3.293000000    -5.975000000     0.570000000
C    -3.261000000    -4.853000000    -0.226000000
C    -2.656000000    -4.921000000    -1.485000000
H    -2.284000000    -5.910000000    -1.741000000
C    -2.515000000    -3.816000000    -2.234000000
O    -1.757000000    -3.738000000    -3.417000000
C    -2.270000000    -3.143000000    -4.547000000
C    -1.406000000    -2.298000000    -5.197000000
H    -0.358000000    -2.271000000    -4.910000000
C    -3.645000000    -3.245000000    -4.896000000
H    -4.311000000    -3.916000000    -4.360000000
C    -4.131000000    -2.469000000    -5.972000000
H    -5.185000000    -2.495000000    -6.236000000
C    -3.179000000    -1.660000000    -6.696000000
H    -3.542000000    -1.184000000    -7.603000000
C    -1.866000000    -1.560000000    -6.263000000
O    -0.945000000    -0.881000000    -7.031000000
C    -0.252000000     0.168000000    -6.435000000
C     1.019000000     0.524000000    -6.856000000
H     1.469000000    -0.094000000    -7.629000000
C     1.671000000     1.576000000    -6.302000000
O     2.946000000     1.809000000    -6.649000000
C     3.897000000     1.986000000    -5.655000000
C     4.138000000     0.978000000    -4.772000000
H     3.533000000     0.075000000    -4.801000000
C     4.614000000     3.141000000    -5.607000000
H     4.380000000     3.906000000    -6.342000000
C     5.538000000     3.400000000    -4.578000000
H     6.196000000     4.263000000    -4.637000000
C     5.756000000     2.435000000    -3.641000000
H     6.427000000     2.505000000    -2.789000000
C     5.067000000     1.201000000    -3.706000000
O     5.246000000     0.294000000    -2.740000000
C     5.196000000     0.615000000    -1.424000000
C     6.009000000    -0.031000000    -0.559000000
H     6.782000000    -0.754000000    -0.806000000
C     5.835000000     0.280000000     0.791000000
O     6.556000000    -0.425000000     1.716000000
C     5.986000000    -1.059000000     2.792000000
C     6.394000000    -0.503000000     3.967000000
H     7.188000000     0.240000000     3.984000000
C     5.882000000    -1.018000000     5.181000000
H     6.191000000    -0.511000000     6.092000000
C     4.960000000    -2.059000000     5.158000000
H     4.450000000    -2.310000000     6.084000000
C     4.616000000    -2.625000000     3.952000000
C     5.107000000    -2.143000000     2.726000000
H     4.840000000    -2.669000000     1.814000000
C     2.412000000    -1.592000000    -0.265000000
H     3.081000000    -1.927000000     0.524000000
C     1.403000000    -0.740000000     0.096000000
H     1.287000000    -0.450000000     1.137000000
C     0.576000000    -0.282000000    -0.909000000
H    -0.214000000     0.345000000    -0.663000000
C     0.820000000    -0.668000000    -2.198000000
H     0.181000000    -0.316000000    -3.004000000
C     1.777000000    -1.585000000    -2.508000000
H     1.914000000    -1.813000000    -3.562000000
C     2.662000000    -1.995000000    -1.549000000
C     3.818000000    -2.826000000    -1.987000000
O     3.972000000    -3.024000000    -3.217000000
O     4.524000000    -3.394000000    -1.181000000
O     4.147000000    -5.704000000    -3.694000000
H     4.705000000    -6.056000000    -3.000000000
H     4.116000000    -4.763000000    -3.523000000
O     8.521000000     1.333000000    -0.723000000
H     8.640000000     2.252000000    -0.964000000
H     7.651000000     1.301000000    -0.325000000
O     5.548000000    -7.032000000    -5.659000000
H     4.962000000    -6.613000000    -5.029000000
H     5.829000000    -6.320000000    -6.234000000
O     4.090000000    -5.396000000     0.535000000
H     4.291000000    -6.129000000    -0.048000000
H     4.333000000    -4.618000000     0.034000000
O     5.405000000    -7.416000000    -0.834000000
H     5.938000000    -7.793000000    -0.135000000
H     5.414000000    -8.078000000    -1.526000000
O     1.106000000    -8.029000000    -0.840000000
H     1.370000000    -7.481000000    -1.579000000
H     0.169000000    -8.173000000    -0.972000000
O     1.102000000    -4.210000000    -6.393000000
H     1.245000000    -4.444000000    -7.310000000
H     0.439000000    -4.829000000    -6.088000000
O     1.449000000    -4.670000000     0.752000000
H     1.132000000    -4.089000000     0.060000000
H     2.357000000    -4.855000000     0.512000000
O     8.118000000    -5.668000000    -4.927000000
H     8.313000000    -5.282000000    -5.781000000
H     7.509000000    -5.052000000    -4.519000000
O     1.514000000    -7.314000000    -3.542000000
H     0.969000000    -7.113000000    -4.302000000
H     2.325000000    -6.828000000    -3.693000000
O     9.068000000    -1.027000000     1.105000000
H     9.464000000    -0.574000000     1.849000000
H     8.168000000    -0.701000000     1.077000000
O     6.884000000    -3.457000000    -3.894000000
H     7.203000000    -2.719000000    -4.414000000
H     5.961000000    -3.257000000    -3.736000000
O     9.656000000    -3.298000000    -1.970000000
H     9.737000000    -3.972000000    -2.644000000
H     8.809000000    -3.472000000    -1.558000000
O     7.056000000    -4.037000000    -1.251000000
H     6.143000000    -3.799000000    -1.089000000
H     7.181000000    -3.883000000    -2.187000000
O     6.510000000    -5.338000000     2.185000000
H     5.678000000    -4.907000000     1.991000000
H     6.628000000    -5.964000000     1.470000000
O     6.027000000    -4.630000000    -7.073000000
H     5.510000000    -3.993000000    -7.565000000
H     6.903000000    -4.246000000    -7.030000000
O     3.287000000    -2.262000000    -5.674000000
H     2.458000000    -2.720000000    -5.817000000
H     3.609000000    -2.604000000    -4.840000000
O     3.833000000    -3.054000000    -8.326000000
H     3.788000000    -2.421000000    -9.043000000
H     3.789000000    -2.521000000    -7.533000000
O     9.061000000    -6.301000000    -0.963000000
H     8.132000000    -6.071000000    -0.965000000
H     9.243000000    -6.556000000    -0.059000000
