215
-1437.42594
C    -2.928000000    -3.196000000    -1.615000000
H    -2.856000000    -2.353000000    -2.298000000
C    -3.355000000    -3.065000000    -0.339000000
C    -3.281000000    -4.215000000     0.498000000
H    -3.499000000    -4.101000000     1.557000000
C    -3.868000000    -1.698000000     0.129000000
O    -4.726000000    -0.958000000    -0.756000000
H    -2.934000000    -1.121000000     0.193000000
O    -4.565000000    -1.690000000     1.427000000
C    -4.023000000    -0.866000000     2.400000000
C    -3.018000000    -1.404000000     3.207000000
H    -2.631000000    -2.419000000     3.187000000
C    -2.230000000    -0.546000000     3.993000000
O    -1.157000000    -0.992000000     4.709000000
C    -2.487000000     0.860000000     3.903000000
C    -1.755000000     1.742000000     4.838000000
H    -2.440000000     2.564000000     5.057000000
C    -0.516000000     2.350000000     4.160000000
C    -0.607000000     3.488000000     3.399000000
H    -1.497000000     4.112000000     3.446000000
H    -1.370000000     1.185000000     5.694000000
C    -3.575000000     1.379000000     3.198000000
H    -3.660000000     2.461000000     3.136000000
C    -4.336000000     0.477000000     2.381000000
C    -5.394000000     1.001000000     1.409000000
H    -5.909000000     1.913000000     1.719000000
H    -6.214000000     0.281000000     1.376000000
C    -4.797000000     1.383000000     0.016000000
C    -4.303000000     2.680000000    -0.116000000
H    -4.657000000     3.481000000     0.528000000
C    -4.459000000     0.395000000    -0.947000000
C    -3.915000000     0.773000000    -2.132000000
H    -3.784000000    -0.038000000    -2.844000000
C    -3.559000000     2.077000000    -2.345000000
O    -2.887000000     2.389000000    -3.487000000
C    -1.449000000     2.573000000    -3.260000000
C    -0.770000000     1.892000000    -4.389000000
C     0.352000000     2.478000000    -4.999000000
H     0.717000000     3.475000000    -4.765000000
C    -1.153000000     0.593000000    -4.776000000
H    -2.012000000     0.178000000    -4.255000000
O    -1.121000000     3.961000000    -3.300000000
H    -1.250000000     2.135000000    -2.271000000
C    -3.777000000     3.014000000    -1.360000000
C    -3.238000000     4.433000000    -1.454000000
H    -3.833000000     5.125000000    -0.854000000
H    -3.511000000     4.824000000    -2.436000000
C    -1.758000000     4.692000000    -1.139000000
C    -1.324000000     5.065000000     0.133000000
H    -2.056000000     5.250000000     0.915000000
C    -0.781000000     4.475000000    -2.062000000
C     0.581000000     4.285000000    -1.714000000
H     1.368000000     4.088000000    -2.437000000
C     1.003000000     4.600000000    -0.434000000
O     2.367000000     4.289000000    -0.226000000
C     2.610000000     3.122000000     0.620000000
C     3.877000000     2.354000000     0.140000000
C     3.874000000     1.815000000    -1.150000000
H     2.962000000     1.899000000    -1.735000000
C     4.782000000     1.815000000     0.978000000
H     4.748000000     2.068000000     2.035000000
O     2.771000000     3.576000000     1.951000000
H     1.813000000     2.370000000     0.524000000
C     0.053000000     4.956000000     0.510000000
C     0.386000000     5.244000000     1.965000000
H    -0.362000000     5.871000000     2.455000000
H     1.314000000     5.818000000     1.929000000
C     0.482000000     3.974000000     2.710000000
C     1.726000000     3.274000000     2.809000000
C     1.739000000     2.112000000     3.509000000
H     2.608000000     1.476000000     3.357000000
C     0.639000000     1.624000000     4.178000000
O     0.694000000     0.361000000     4.695000000
C     0.075000000    -0.706000000     4.067000000
H    -0.016000000    -0.436000000     3.005000000
C     0.950000000    -1.969000000     3.964000000
C     0.443000000    -3.207000000     4.160000000
H    -0.616000000    -3.373000000     4.336000000
C     2.246000000    -1.821000000     3.511000000
H     2.535000000    -0.817000000     3.212000000
C     3.028000000    -2.976000000     3.420000000
O     4.388000000    -2.905000000     3.106000000
C     2.524000000    -4.259000000     3.740000000
H     3.123000000    -5.164000000     3.668000000
C     1.204000000    -4.372000000     4.010000000
O     0.655000000    -5.672000000     4.170000000
C    -0.665000000    -5.980000000     3.852000000
C    -0.995000000    -5.967000000     2.568000000
H    -0.264000000    -5.652000000     1.828000000
C    -1.629000000    -6.165000000     4.846000000
H    -1.364000000    -5.979000000     5.884000000
C    -2.889000000    -6.631000000     4.506000000
H    -3.607000000    -6.896000000     5.278000000
C    -3.163000000    -6.752000000     3.145000000
H    -4.126000000    -7.170000000     2.865000000
C    -2.257000000    -6.409000000     2.184000000
O    -2.447000000    -6.488000000     0.834000000
C    -2.740000000    -5.361000000     0.016000000
C    -2.468000000    -5.549000000    -1.303000000
H    -2.139000000    -6.511000000    -1.688000000
C    -2.535000000    -4.437000000    -2.177000000
O    -2.089000000    -4.670000000    -3.555000000
C    -2.486000000    -3.772000000    -4.515000000
C    -1.569000000    -2.802000000    -4.887000000
H    -0.529000000    -2.877000000    -4.580000000
C    -3.826000000    -3.727000000    -4.939000000
H    -4.618000000    -4.363000000    -4.552000000
C    -4.191000000    -2.767000000    -5.909000000
H    -5.198000000    -2.737000000    -6.316000000
C    -3.249000000    -1.824000000    -6.360000000
H    -3.515000000    -1.111000000    -7.136000000
C    -1.910000000    -1.908000000    -5.894000000
O    -0.867000000    -1.193000000    -6.450000000
C    -0.522000000     0.028000000    -5.980000000
C     0.496000000     0.640000000    -6.648000000
H     0.949000000     0.137000000    -7.498000000
C     0.992000000     1.792000000    -6.032000000
O     2.138000000     2.314000000    -6.565000000
C     3.332000000     2.379000000    -5.821000000
C     3.626000000     1.516000000    -4.785000000
H     3.025000000     0.611000000    -4.820000000
C     4.122000000     3.496000000    -6.012000000
H     3.885000000     4.165000000    -6.835000000
C     5.216000000     3.756000000    -5.155000000
H     5.797000000     4.668000000    -5.272000000
C     5.510000000     2.869000000    -4.134000000
H     6.354000000     3.014000000    -3.465000000
C     4.713000000     1.650000000    -3.973000000
O     5.006000000     0.774000000    -2.965000000
C     4.967000000     1.175000000    -1.651000000
C     6.108000000     0.981000000    -0.834000000
H     6.995000000     0.500000000    -1.238000000
C     5.912000000     1.237000000     0.500000000
O     6.821000000     0.916000000     1.487000000
C     6.551000000    -0.023000000     2.428000000
C     7.178000000     0.123000000     3.636000000
H     7.834000000     0.977000000     3.785000000
C     6.849000000    -0.792000000     4.679000000
H     7.431000000    -0.729000000     5.595000000
C     5.902000000    -1.807000000     4.519000000
H     5.632000000    -2.395000000     5.392000000
C     5.222000000    -1.844000000     3.277000000
C     5.668000000    -1.128000000     2.195000000
H     5.238000000    -1.166000000     1.197000000
C     2.128000000    -1.284000000    -0.207000000
H     3.035000000    -1.501000000     0.353000000
C     1.104000000    -0.622000000     0.391000000
H     1.135000000    -0.347000000     1.442000000
C    -0.028000000    -0.356000000    -0.356000000
H    -0.872000000     0.140000000     0.171000000
C    -0.051000000    -0.654000000    -1.728000000
H    -0.965000000    -0.451000000    -2.281000000
C     1.085000000    -1.228000000    -2.321000000
H     1.044000000    -1.654000000    -3.320000000
C     2.217000000    -1.510000000    -1.549000000
C     3.338000000    -2.418000000    -2.039000000
O     3.301000000    -2.711000000    -3.255000000
O     4.064000000    -3.130000000    -1.340000000
O     4.977000000    -5.134000000    -6.193000000
H     5.317000000    -4.280000000    -6.461000000
H     5.720000000    -5.729000000    -6.293000000
O     3.123000000    -0.784000000    -7.260000000
H     4.032000000    -1.075000000    -7.194000000
H     2.629000000    -1.422000000    -6.745000000
O     6.807000000    -4.426000000    -3.823000000
H     6.504000000    -5.157000000    -4.360000000
H     6.974000000    -3.722000000    -4.450000000
O     3.873000000    -5.843000000    -1.094000000
H     3.656000000    -6.145000000    -1.977000000
H     3.867000000    -4.888000000    -1.159000000
O     5.628000000    -1.963000000    -7.291000000
H     5.758000000    -1.947000000    -6.343000000
H     6.502000000    -2.116000000    -7.650000000
O     2.618000000    -8.135000000    -4.000000000
H     2.821000000    -7.201000000    -4.039000000
H     1.720000000    -8.199000000    -4.325000000
O     0.166000000    -3.883000000    -0.032000000
H     0.873000000    -3.244000000    -0.115000000
H    -0.608000000    -3.430000000    -0.367000000
O     2.045000000    -2.576000000    -5.608000000
H     1.881000000    -3.507000000    -5.459000000
H     2.494000000    -2.282000000    -4.815000000
O     3.399000000    -5.357000000    -3.877000000
H     4.028000000    -5.248000000    -4.590000000
H     3.143000000    -4.464000000    -3.645000000
O     5.619000000    -1.822000000    -4.451000000
H     6.200000000    -1.677000000    -3.705000000
H     4.764000000    -1.998000000    -4.058000000
O     8.567000000    -1.696000000    -0.903000000
H     7.734000000    -2.147000000    -1.042000000
H     9.214000000    -2.399000000    -0.851000000
O     6.494000000    -3.164000000    -1.296000000
H     5.540000000    -3.120000000    -1.226000000
H     6.653000000    -3.593000000    -2.137000000
O     1.614000000    -6.581000000     0.233000000
H     2.509000000    -6.362000000    -0.028000000
H     1.134000000    -5.756000000     0.157000000
O     6.526000000     1.201000000    -6.790000000
H     7.337000000     1.389000000    -6.318000000
H     5.936000000     0.851000000    -6.121000000
O     1.023000000    -5.332000000    -5.047000000
H     0.505000000    -6.138000000    -5.050000000
H     1.810000000    -5.555000000    -4.551000000
O     9.197000000     0.250000000    -2.973000000
H     8.956000000    -0.326000000    -2.247000000
H     9.951000000     0.742000000    -2.648000000
O     8.891000000    -5.444000000    -2.350000000
H     9.227000000    -5.896000000    -1.575000000
H     8.172000000    -4.905000000    -2.020000000
O     5.739000000    -8.648000000    -0.739000000
H     6.626000000    -8.593000000    -0.382000000
H     5.405000000    -7.752000000    -0.691000000
O     6.644000000    -5.710000000     0.114000000
H     6.956000000    -4.838000000    -0.127000000
H     5.692000000    -5.655000000     0.031000000
