215
-1439.34164
C    -3.287000000    -2.953000000    -1.828000000
H    -3.387000000    -2.127000000    -2.527000000
C    -3.404000000    -2.731000000    -0.471000000
C    -3.173000000    -3.711000000     0.462000000
H    -3.229000000    -3.514000000     1.530000000
C    -3.775000000    -1.349000000     0.099000000
O    -4.731000000    -0.592000000    -0.704000000
H    -2.876000000    -0.716000000     0.123000000
O    -4.342000000    -1.433000000     1.421000000
C    -3.903000000    -0.536000000     2.396000000
C    -2.996000000    -1.104000000     3.307000000
H    -2.733000000    -2.159000000     3.342000000
C    -2.328000000    -0.202000000     4.138000000
O    -1.283000000    -0.764000000     4.903000000
C    -2.619000000     1.146000000     4.096000000
C    -1.814000000     2.036000000     4.974000000
H    -2.345000000     2.962000000     5.203000000
C    -0.427000000     2.387000000     4.362000000
C    -0.397000000     3.499000000     3.579000000
H    -1.270000000     4.147000000     3.601000000
H    -1.620000000     1.568000000     5.941000000
C    -3.534000000     1.665000000     3.220000000
H    -3.779000000     2.724000000     3.220000000
C    -4.223000000     0.818000000     2.314000000
C    -5.197000000     1.404000000     1.340000000
H    -5.737000000     2.214000000     1.835000000
H    -6.012000000     0.713000000     1.118000000
C    -4.479000000     1.767000000     0.046000000
C    -3.724000000     3.007000000    -0.195000000
H    -3.578000000     3.759000000     0.577000000
C    -4.389000000     0.730000000    -0.929000000
C    -3.696000000     1.040000000    -2.157000000
H    -3.691000000     0.352000000    -2.998000000
C    -3.185000000     2.306000000    -2.412000000
O    -2.443000000     2.469000000    -3.557000000
C    -0.946000000     2.428000000    -3.484000000
C    -0.322000000     1.775000000    -4.686000000
C     0.900000000     2.129000000    -5.229000000
H     1.407000000     3.026000000    -4.883000000
C    -0.905000000     0.627000000    -5.187000000
H    -1.834000000     0.282000000    -4.741000000
O    -0.447000000     3.795000000    -3.296000000
H    -0.754000000     1.861000000    -2.561000000
C    -3.195000000     3.277000000    -1.421000000
C    -2.648000000     4.662000000    -1.760000000
H    -3.287000000     5.342000000    -1.191000000
H    -2.700000000     4.820000000    -2.839000000
C    -1.223000000     4.727000000    -1.248000000
C    -0.936000000     4.929000000     0.083000000
H    -1.818000000     5.227000000     0.644000000
C    -0.196000000     4.398000000    -2.069000000
C     1.151000000     4.353000000    -1.624000000
H     1.907000000     4.091000000    -2.359000000
C     1.387000000     4.470000000    -0.305000000
O     2.655000000     4.212000000     0.019000000
C     2.891000000     3.008000000     0.723000000
C     4.033000000     2.126000000     0.157000000
C     4.227000000     2.053000000    -1.192000000
H     3.707000000     2.703000000    -1.892000000
C     4.793000000     1.305000000     1.010000000
H     4.608000000     1.228000000     2.078000000
O     3.000000000     3.237000000     2.177000000
H     2.003000000     2.386000000     0.536000000
C     0.439000000     4.724000000     0.565000000
C     0.713000000     5.062000000     1.949000000
H    -0.062000000     5.692000000     2.390000000
H     1.662000000     5.549000000     2.184000000
C     0.768000000     3.807000000     2.858000000
C     1.886000000     2.987000000     2.916000000
C     1.929000000     1.917000000     3.844000000
H     2.839000000     1.420000000     4.168000000
C     0.742000000     1.594000000     4.457000000
O     0.724000000     0.358000000     5.125000000
C     0.026000000    -0.695000000     4.452000000
H     0.000000000    -0.429000000     3.385000000
C     0.673000000    -2.027000000     4.491000000
C    -0.113000000    -3.156000000     4.637000000
H    -1.190000000    -3.109000000     4.772000000
C     1.999000000    -2.216000000     4.149000000
H     2.597000000    -1.337000000     3.920000000
C     2.562000000    -3.474000000     3.983000000
O     3.880000000    -3.585000000     3.614000000
C     1.764000000    -4.573000000     4.231000000
H     2.239000000    -5.550000000     4.255000000
C     0.420000000    -4.426000000     4.489000000
O    -0.304000000    -5.565000000     4.818000000
C    -1.522000000    -5.888000000     4.204000000
C    -1.638000000    -5.668000000     2.808000000
H    -0.836000000    -5.174000000     2.267000000
C    -2.537000000    -6.602000000     4.874000000
H    -2.280000000    -6.672000000     5.928000000
C    -3.632000000    -7.103000000     4.164000000
H    -4.382000000    -7.698000000     4.678000000
C    -3.670000000    -6.994000000     2.797000000
H    -4.517000000    -7.392000000     2.244000000
C    -2.722000000    -6.163000000     2.114000000
O    -2.643000000    -6.057000000     0.783000000
C    -2.688000000    -4.921000000    -0.027000000
C    -2.449000000    -5.156000000    -1.361000000
H    -2.098000000    -6.114000000    -1.736000000
C    -2.876000000    -4.251000000    -2.292000000
O    -2.458000000    -4.456000000    -3.551000000
C    -2.781000000    -3.599000000    -4.583000000
C    -1.742000000    -2.839000000    -5.178000000
H    -0.733000000    -2.933000000    -4.783000000
C    -4.103000000    -3.476000000    -5.109000000
H    -4.908000000    -4.147000000    -4.822000000
C    -4.374000000    -2.569000000    -6.148000000
H    -5.353000000    -2.510000000    -6.617000000
C    -3.372000000    -1.772000000    -6.672000000
H    -3.612000000    -1.031000000    -7.431000000
C    -2.024000000    -1.951000000    -6.262000000
O    -1.005000000    -1.182000000    -6.877000000
C    -0.395000000    -0.110000000    -6.260000000
C     0.832000000     0.292000000    -6.767000000
H     1.357000000    -0.269000000    -7.536000000
C     1.464000000     1.408000000    -6.264000000
O     2.639000000     1.835000000    -6.795000000
C     3.622000000     2.386000000    -5.963000000
C     4.077000000     1.690000000    -4.829000000
H     3.651000000     0.718000000    -4.596000000
C     4.174000000     3.620000000    -6.327000000
H     3.839000000     4.168000000    -7.204000000
C     5.186000000     4.128000000    -5.540000000
H     5.637000000     5.100000000    -5.724000000
C     5.679000000     3.421000000    -4.426000000
H     6.531000000     3.819000000    -3.881000000
C     5.149000000     2.161000000    -4.133000000
O     5.764000000     1.442000000    -3.079000000
C     5.282000000     1.348000000    -1.764000000
C     5.943000000     0.465000000    -0.947000000
H     6.687000000    -0.200000000    -1.380000000
C     5.753000000     0.500000000     0.441000000
O     6.447000000    -0.390000000     1.158000000
C     6.033000000    -0.941000000     2.339000000
C     6.543000000    -0.409000000     3.505000000
H     7.349000000     0.320000000     3.510000000
C     6.197000000    -0.912000000     4.775000000
H     6.485000000    -0.373000000     5.674000000
C     5.196000000    -1.908000000     4.819000000
H     4.820000000    -2.233000000     5.785000000
C     4.836000000    -2.579000000     3.619000000
C     5.226000000    -2.016000000     2.423000000
H     4.842000000    -2.440000000     1.499000000
C     2.140000000    -0.543000000    -0.059000000
H     3.041000000    -0.714000000     0.525000000
C     0.991000000     0.030000000     0.472000000
H     1.111000000     0.478000000     1.455000000
C    -0.221000000     0.148000000    -0.268000000
H    -1.056000000     0.575000000     0.173000000
C    -0.291000000    -0.430000000    -1.511000000
H    -1.199000000    -0.302000000    -2.096000000
C     0.860000000    -1.050000000    -2.054000000
H     0.838000000    -1.463000000    -3.059000000
C     2.026000000    -1.121000000    -1.314000000
C     3.295000000    -1.874000000    -1.769000000
O     3.648000000    -1.835000000    -2.879000000
O     3.810000000    -2.601000000    -0.967000000
O     4.006000000    -4.472000000    -3.694000000
H     3.837000000    -3.671000000    -3.198000000
H     3.574000000    -4.328000000    -4.537000000
O     6.284000000    -6.748000000    -5.429000000
H     5.538000000    -6.178000000    -5.241000000
H     7.013000000    -6.354000000    -4.951000000
O     4.040000000    -4.901000000     0.277000000
H     4.576000000    -5.446000000    -0.300000000
H     3.996000000    -4.054000000    -0.167000000
O     5.450000000    -7.371000000    -0.619000000
H     6.086000000    -8.050000000    -0.393000000
H     4.655000000    -7.853000000    -0.844000000
O     3.969000000    -5.570000000    -6.451000000
H     4.156000000    -6.444000000    -6.794000000
H     4.242000000    -4.975000000    -7.149000000
O     1.512000000    -4.335000000    -5.775000000
H     2.178000000    -4.902000000    -6.164000000
H     0.683000000    -4.676000000    -6.108000000
O     0.659000000    -3.480000000     0.407000000
H     0.073000000    -3.196000000    -0.295000000
H     1.243000000    -2.734000000     0.547000000
O     8.054000000    -3.352000000    -4.924000000
H     8.001000000    -2.972000000    -5.801000000
H     7.388000000    -2.884000000    -4.419000000
O     4.780000000    -1.544000000    -7.379000000
H     3.978000000    -1.721000000    -6.888000000
H     5.354000000    -1.106000000    -6.750000000
O     1.904000000    -6.655000000    -3.224000000
H     1.317000000    -6.038000000    -3.662000000
H     2.624000000    -6.112000000    -2.901000000
O     6.490000000    -1.860000000    -3.477000000
H     6.313000000    -1.043000000    -3.943000000
H     5.624000000    -2.199000000    -3.252000000
O     9.189000000    -2.816000000    -0.134000000
H     8.287000000    -3.100000000    -0.283000000
H     9.343000000    -2.985000000     0.796000000
O     6.554000000    -3.407000000    -0.490000000
H     5.666000000    -3.108000000    -0.293000000
H     6.652000000    -3.265000000    -1.431000000
O     1.577000000    -5.926000000     1.203000000
H     2.460000000    -5.761000000     0.871000000
H     1.062000000    -5.181000000     0.893000000
O     5.803000000    -5.586000000     3.477000000
H     5.132000000    -5.416000000     2.816000000
H     5.320000000    -5.934000000     4.226000000
O     6.997000000    -0.201000000    -5.780000000
H     7.521000000    -0.523000000    -6.513000000
H     7.633000000    -0.041000000    -5.083000000
O     8.831000000     0.052000000    -3.780000000
H     9.129000000    -0.635000000    -3.183000000
H     8.865000000     0.854000000    -3.258000000
O     2.944000000    -1.896000000    -5.465000000
H     2.082000000    -2.292000000    -5.331000000
H     3.136000000    -1.457000000    -4.636000000
O     8.252000000    -6.284000000    -1.490000000
H     7.535000000    -5.743000000    -1.158000000
H     7.898000000    -7.173000000    -1.500000000
