215
-1478.00207
C    -4.325000000    -3.296000000    -1.815000000
H    -4.525000000    -2.510000000    -2.539000000
C    -4.169000000    -3.033000000    -0.462000000
C    -3.876000000    -4.041000000     0.451000000
H    -3.790000000    -3.767000000     1.499000000
C    -4.091000000    -1.537000000    -0.025000000
O    -4.841000000    -0.700000000    -0.783000000
H    -3.033000000    -1.235000000    -0.022000000
O    -4.563000000    -1.543000000     1.352000000
C    -4.060000000    -0.686000000     2.232000000
C    -3.075000000    -1.115000000     3.105000000
H    -2.976000000    -2.197000000     3.154000000
C    -2.373000000    -0.252000000     3.915000000
O    -1.387000000    -0.770000000     4.659000000
C    -2.657000000     1.092000000     3.886000000
C    -1.906000000     2.144000000     4.711000000
H    -2.617000000     2.954000000     4.886000000
C    -0.634000000     2.545000000     4.023000000
C    -0.654000000     3.721000000     3.229000000
H    -1.531000000     4.321000000     3.000000000
H    -1.770000000     1.841000000     5.751000000
C    -3.634000000     1.502000000     2.983000000
H    -3.773000000     2.580000000     2.965000000
C    -4.368000000     0.694000000     2.130000000
C    -5.354000000     1.238000000     1.136000000
H    -5.819000000     2.154000000     1.504000000
H    -6.156000000     0.512000000     0.987000000
C    -4.663000000     1.603000000    -0.170000000
C    -4.109000000     2.821000000    -0.475000000
H    -4.205000000     3.676000000     0.191000000
C    -4.399000000     0.546000000    -1.042000000
C    -3.668000000     0.658000000    -2.147000000
H    -3.460000000    -0.154000000    -2.839000000
C    -3.121000000     1.882000000    -2.432000000
O    -2.294000000     1.856000000    -3.548000000
C    -0.870000000     1.870000000    -3.203000000
C    -0.127000000     0.956000000    -4.152000000
C     1.254000000     1.234000000    -4.473000000
H     1.744000000     2.129000000    -4.099000000
C    -0.597000000    -0.320000000    -4.536000000
H    -1.586000000    -0.569000000    -4.159000000
O    -0.356000000     3.238000000    -3.297000000
H    -0.819000000     1.419000000    -2.201000000
C    -3.315000000     2.980000000    -1.628000000
C    -2.750000000     4.311000000    -1.936000000
H    -3.432000000     5.088000000    -1.584000000
H    -2.726000000     4.407000000    -3.023000000
C    -1.361000000     4.479000000    -1.414000000
C    -1.047000000     4.963000000    -0.121000000
H    -1.850000000     5.301000000     0.528000000
C    -0.296000000     4.009000000    -2.154000000
C     1.064000000     4.045000000    -1.704000000
H     1.808000000     3.621000000    -2.373000000
C     1.328000000     4.568000000    -0.448000000
O     2.670000000     4.492000000    -0.030000000
C     2.930000000     3.358000000     0.745000000
C     4.326000000     2.780000000     0.364000000
C     4.777000000     2.964000000    -0.979000000
H     4.257000000     3.579000000    -1.709000000
C     5.068000000     2.056000000     1.284000000
H     4.718000000     1.840000000     2.290000000
O     2.842000000     3.747000000     2.112000000
H     2.272000000     2.516000000     0.485000000
C     0.273000000     4.988000000     0.319000000
C     0.533000000     5.420000000     1.794000000
H    -0.276000000     6.123000000     2.003000000
H     1.495000000     5.931000000     1.719000000
C     0.534000000     4.197000000     2.638000000
C     1.680000000     3.375000000     2.762000000
C     1.619000000     2.135000000     3.382000000
H     2.527000000     1.538000000     3.418000000
C     0.470000000     1.732000000     4.008000000
O     0.605000000     0.591000000     4.713000000
C    -0.081000000    -0.545000000     4.179000000
H    -0.124000000    -0.248000000     3.120000000
C     0.696000000    -1.770000000     4.070000000
C     0.054000000    -3.062000000     4.104000000
H    -0.970000000    -3.153000000     4.457000000
C     1.967000000    -1.681000000     3.532000000
H     2.452000000    -0.712000000     3.448000000
C     2.630000000    -2.850000000     3.122000000
O     3.882000000    -2.896000000     2.579000000
C     2.030000000    -4.062000000     3.101000000
H     2.519000000    -4.974000000     2.766000000
C     0.828000000    -4.208000000     3.700000000
O     0.287000000    -5.481000000     3.790000000
C    -1.066000000    -5.611000000     3.590000000
C    -1.601000000    -5.914000000     2.307000000
H    -0.996000000    -6.120000000     1.428000000
C    -1.978000000    -5.485000000     4.699000000
H    -1.605000000    -5.252000000     5.693000000
C    -3.335000000    -5.664000000     4.499000000
H    -4.032000000    -5.742000000     5.330000000
C    -3.776000000    -5.916000000     3.183000000
H    -4.840000000    -6.077000000     3.031000000
C    -2.961000000    -6.064000000     2.110000000
O    -3.475000000    -6.315000000     0.859000000
C    -3.790000000    -5.339000000     0.016000000
C    -3.819000000    -5.618000000    -1.341000000
H    -3.671000000    -6.631000000    -1.708000000
C    -4.226000000    -4.625000000    -2.250000000
O    -4.227000000    -4.920000000    -3.611000000
C    -3.568000000    -4.091000000    -4.502000000
C    -2.152000000    -4.021000000    -4.558000000
H    -1.473000000    -4.515000000    -3.867000000
C    -4.325000000    -3.366000000    -5.348000000
H    -5.407000000    -3.400000000    -5.255000000
C    -3.758000000    -2.498000000    -6.290000000
H    -4.414000000    -1.886000000    -6.903000000
C    -2.388000000    -2.293000000    -6.208000000
H    -1.972000000    -1.537000000    -6.870000000
C    -1.637000000    -2.909000000    -5.256000000
O    -0.287000000    -2.641000000    -5.121000000
C     0.201000000    -1.315000000    -5.088000000
C     1.543000000    -1.007000000    -5.368000000
H     2.304000000    -1.603000000    -5.865000000
C     2.065000000     0.262000000    -5.055000000
O     3.370000000     0.510000000    -5.486000000
C     4.116000000     1.636000000    -5.185000000
C     4.833000000     1.632000000    -4.017000000
H     4.731000000     0.877000000    -3.241000000
C     4.239000000     2.682000000    -6.116000000
H     3.787000000     2.649000000    -7.104000000
C     5.062000000     3.727000000    -5.803000000
H     5.084000000     4.497000000    -6.570000000
C     5.849000000     3.744000000    -4.683000000
H     6.465000000     4.629000000    -4.546000000
C     5.745000000     2.678000000    -3.782000000
O     6.500000000     2.654000000    -2.622000000
C     6.008000000     2.403000000    -1.384000000
C     6.798000000     1.764000000    -0.430000000
H     7.800000000     1.383000000    -0.608000000
C     6.276000000     1.488000000     0.854000000
O     6.957000000     0.674000000     1.753000000
C     6.254000000    -0.123000000     2.639000000
C     6.552000000    -0.061000000     3.998000000
H     7.301000000     0.615000000     4.402000000
C     6.057000000    -1.070000000     4.882000000
H     6.188000000    -1.003000000     5.959000000
C     5.086000000    -2.001000000     4.447000000
H     4.680000000    -2.709000000     5.165000000
C     4.757000000    -1.963000000     3.088000000
C     5.361000000    -1.095000000     2.180000000
H     5.087000000    -1.128000000     1.128000000
C     1.838000000    -0.874000000    -0.697000000
H     2.875000000    -0.673000000    -0.440000000
C     0.776000000    -0.134000000    -0.164000000
H     0.931000000     0.640000000     0.583000000
C    -0.556000000    -0.393000000    -0.533000000
H    -1.315000000     0.202000000    -0.098000000
C    -0.793000000    -1.403000000    -1.418000000
H    -1.829000000    -1.656000000    -1.624000000
C     0.303000000    -2.142000000    -1.904000000
H    -0.013000000    -2.938000000    -2.574000000
C     1.610000000    -1.893000000    -1.576000000
C     2.706000000    -2.724000000    -2.186000000
O     2.364000000    -3.772000000    -2.715000000
O     3.864000000    -2.386000000    -1.982000000
O     5.248000000    -5.152000000    -6.918000000
H     4.399000000    -4.956000000    -6.521000000
H     5.618000000    -4.294000000    -7.128000000
O     4.323000000    -0.672000000    -7.958000000
H     5.207000000    -0.715000000    -8.322000000
H     4.432000000    -0.906000000    -7.036000000
O     8.042000000    -2.411000000    -3.713000000
H     8.891000000    -2.601000000    -3.314000000
H     7.859000000    -3.175000000    -4.260000000
O     5.951000000    -4.066000000    -2.704000000
H     6.222000000    -3.333000000    -3.257000000
H     5.146000000    -3.765000000    -2.284000000
O     6.261000000    -6.145000000    -4.287000000
H     6.297000000    -5.410000000    -3.675000000
H     6.129000000    -5.737000000    -5.143000000
O     2.980000000    -7.841000000    -5.537000000
H     2.053000000    -7.689000000    -5.717000000
H     3.181000000    -7.259000000    -4.804000000
O     0.471000000    -6.709000000    -4.705000000
H    -0.437000000    -7.002000000    -4.626000000
H     0.667000000    -6.308000000    -3.858000000
O     2.860000000    -6.924000000    -0.494000000
H     3.176000000    -7.090000000    -1.382000000
H     3.655000000    -6.863000000     0.036000000
O     3.184000000    -4.364000000    -5.199000000
H     2.460000000    -4.453000000    -5.818000000
H     2.765000000    -4.111000000    -4.376000000
O     3.596000000    -6.494000000    -3.198000000
H     4.422000000    -6.519000000    -3.681000000
H     3.492000000    -5.576000000    -2.948000000
O     1.489000000    -4.525000000    -7.493000000
H     1.067000000    -3.864000000    -8.041000000
H     1.194000000    -5.360000000    -7.855000000
O     5.028000000    -2.259000000    -4.744000000
H     4.654000000    -2.225000000    -3.864000000
H     4.608000000    -3.016000000    -5.154000000
O     6.672000000    -1.905000000    -0.931000000
H     5.718000000    -1.886000000    -1.006000000
H     6.975000000    -2.178000000    -1.797000000
O    -1.212000000    -7.630000000    -1.072000000
H    -0.559000000    -7.083000000    -1.508000000
H    -2.027000000    -7.450000000    -1.540000000
O     0.837000000    -6.027000000    -2.149000000
H     1.108000000    -5.111000000    -2.210000000
H     1.400000000    -6.398000000    -1.470000000
O     6.871000000    -0.789000000    -6.119000000
H     7.538000000    -0.587000000    -5.463000000
H     6.175000000    -1.224000000    -5.627000000
O     0.097000000    -6.747000000    -7.518000000
H    -0.810000000    -6.492000000    -7.690000000
H     0.234000000    -6.537000000    -6.594000000
O     8.827000000    -5.668000000    -2.867000000
H     8.821000000    -5.076000000    -3.620000000
H     8.300000000    -5.219000000    -2.206000000
O     7.062000000    -5.320000000    -0.515000000
H     7.261000000    -4.667000000     0.156000000
H     6.411000000    -4.897000000    -1.075000000
