215
-1462.28347
C    -2.589000000    -3.510000000    -2.136000000
H    -2.635000000    -2.617000000    -2.755000000
C    -3.262000000    -3.429000000    -0.924000000
C    -3.305000000    -4.538000000    -0.060000000
H    -3.727000000    -4.473000000     0.940000000
C    -3.764000000    -2.020000000    -0.512000000
O    -4.460000000    -1.363000000    -1.562000000
H    -2.860000000    -1.446000000    -0.259000000
O    -4.543000000    -2.055000000     0.685000000
C    -4.219000000    -1.093000000     1.631000000
C    -3.375000000    -1.498000000     2.659000000
H    -3.066000000    -2.536000000     2.748000000
C    -2.946000000    -0.578000000     3.625000000
O    -1.997000000    -0.951000000     4.522000000
C    -3.278000000     0.800000000     3.535000000
C    -2.887000000     1.851000000     4.552000000
H    -3.685000000     2.533000000     4.852000000
C    -1.625000000     2.469000000     4.116000000
C    -1.722000000     3.628000000     3.287000000
H    -2.605000000     4.262000000     3.291000000
H    -2.636000000     1.400000000     5.515000000
C    -4.194000000     1.181000000     2.528000000
H    -4.584000000     2.194000000     2.592000000
C    -4.716000000     0.205000000     1.599000000
C    -5.534000000     0.656000000     0.421000000
H    -6.137000000     1.511000000     0.733000000
H    -6.175000000    -0.209000000     0.241000000
C    -4.665000000     1.006000000    -0.882000000
C    -4.295000000     2.333000000    -1.099000000
H    -4.753000000     3.038000000    -0.409000000
C    -4.283000000     0.001000000    -1.779000000
C    -3.424000000     0.317000000    -2.825000000
H    -3.246000000    -0.436000000    -3.588000000
C    -3.051000000     1.620000000    -3.010000000
O    -2.245000000     1.876000000    -4.011000000
C    -0.924000000     2.088000000    -3.640000000
C    -0.053000000     1.333000000    -4.648000000
C     1.259000000     1.805000000    -4.892000000
H     1.625000000     2.712000000    -4.418000000
C    -0.419000000     0.226000000    -5.317000000
H    -1.389000000    -0.219000000    -5.111000000
O    -0.449000000     3.427000000    -3.525000000
H    -0.798000000     1.517000000    -2.709000000
C    -3.504000000     2.653000000    -2.198000000
C    -3.114000000     4.134000000    -2.446000000
H    -3.911000000     4.758000000    -2.036000000
H    -3.095000000     4.381000000    -3.510000000
C    -1.728000000     4.322000000    -1.721000000
C    -1.774000000     4.779000000    -0.396000000
H    -2.755000000     4.938000000     0.043000000
C    -0.506000000     3.930000000    -2.306000000
C     0.736000000     4.246000000    -1.624000000
H     1.673000000     3.952000000    -2.090000000
C     0.650000000     4.709000000    -0.307000000
O     1.880000000     4.652000000     0.300000000
C     2.169000000     3.447000000     1.062000000
C     3.608000000     2.897000000     0.913000000
C     4.049000000     2.455000000    -0.353000000
H     3.461000000     2.491000000    -1.266000000
C     4.363000000     2.686000000     2.078000000
H     4.036000000     3.084000000     3.034000000
O     1.919000000     3.936000000     2.400000000
H     1.502000000     2.599000000     0.845000000
C    -0.605000000     4.935000000     0.302000000
C    -0.590000000     5.272000000     1.793000000
H    -1.505000000     5.833000000     1.995000000
H     0.193000000     6.003000000     2.006000000
C    -0.510000000     4.029000000     2.679000000
C     0.737000000     3.449000000     2.977000000
C     0.774000000     2.382000000     3.892000000
H     1.730000000     1.908000000     4.101000000
C    -0.378000000     1.798000000     4.291000000
O    -0.266000000     0.605000000     4.940000000
C    -0.627000000    -0.545000000     4.207000000
H    -0.665000000    -0.304000000     3.135000000
C     0.373000000    -1.739000000     4.375000000
C     0.076000000    -2.959000000     3.852000000
H    -0.948000000    -3.172000000     3.554000000
C     1.747000000    -1.403000000     4.669000000
H     2.078000000    -0.424000000     5.005000000
C     2.719000000    -2.337000000     4.264000000
O     4.057000000    -2.104000000     4.444000000
C     2.389000000    -3.604000000     3.753000000
H     3.144000000    -4.356000000     3.537000000
C     1.037000000    -3.936000000     3.544000000
O     0.771000000    -5.205000000     3.006000000
C    -0.520000000    -5.667000000     2.883000000
C    -1.041000000    -6.096000000     1.652000000
H    -0.583000000    -5.998000000     0.671000000
C    -1.315000000    -5.708000000     4.007000000
H    -0.974000000    -5.484000000     5.014000000
C    -2.514000000    -6.405000000     3.962000000
H    -3.117000000    -6.614000000     4.842000000
C    -3.091000000    -6.778000000     2.720000000
H    -4.022000000    -7.338000000     2.686000000
C    -2.318000000    -6.656000000     1.554000000
O    -2.851000000    -6.821000000     0.314000000
C    -2.846000000    -5.734000000    -0.546000000
C    -2.209000000    -5.824000000    -1.737000000
H    -1.673000000    -6.740000000    -1.973000000
C    -2.016000000    -4.701000000    -2.552000000
O    -1.128000000    -4.775000000    -3.618000000
C    -1.382000000    -4.194000000    -4.825000000
C    -0.496000000    -3.227000000    -5.367000000
H     0.365000000    -2.976000000    -4.753000000
C    -2.566000000    -4.434000000    -5.485000000
H    -3.295000000    -5.052000000    -4.968000000
C    -2.905000000    -3.772000000    -6.700000000
H    -3.853000000    -3.941000000    -7.205000000
C    -2.031000000    -2.838000000    -7.252000000
H    -2.185000000    -2.368000000    -8.220000000
C    -0.868000000    -2.524000000    -6.516000000
O     0.032000000    -1.531000000    -6.946000000
C     0.390000000    -0.402000000    -6.275000000
C     1.673000000     0.071000000    -6.476000000
H     2.323000000    -0.396000000    -7.212000000
C     2.171000000     1.149000000    -5.794000000
O     3.505000000     1.565000000    -5.968000000
C     4.366000000     2.032000000    -5.019000000
C     4.457000000     1.482000000    -3.761000000
H     3.871000000     0.643000000    -3.395000000
C     5.295000000     3.084000000    -5.341000000
H     5.248000000     3.362000000    -6.390000000
C     6.297000000     3.438000000    -4.462000000
H     6.983000000     4.263000000    -4.637000000
C     6.377000000     2.830000000    -3.189000000
H     7.103000000     3.221000000    -2.480000000
C     5.441000000     1.894000000    -2.822000000
O     5.682000000     1.220000000    -1.692000000
C     5.247000000     1.786000000    -0.485000000
C     6.033000000     1.637000000     0.671000000
H     6.965000000     1.077000000     0.646000000
C     5.618000000     2.038000000     1.938000000
O     6.423000000     1.829000000     3.008000000
C     5.833000000     1.111000000     4.037000000
C     5.850000000     1.544000000     5.349000000
H     6.332000000     2.496000000     5.554000000
C     5.159000000     0.819000000     6.288000000
H     5.153000000     1.203000000     7.305000000
C     4.473000000    -0.376000000     6.031000000
H     3.861000000    -0.835000000     6.803000000
C     4.587000000    -0.893000000     4.770000000
C     5.317000000    -0.181000000     3.778000000
H     5.625000000    -0.680000000     2.863000000
C     1.894000000    -1.577000000     0.706000000
H     2.658000000    -2.031000000     1.331000000
C     1.255000000    -0.440000000     1.071000000
H     1.624000000    -0.015000000     2.001000000
C     0.194000000     0.027000000     0.378000000
H    -0.349000000     0.878000000     0.658000000
C    -0.213000000    -0.681000000    -0.767000000
H    -1.065000000    -0.369000000    -1.365000000
C     0.486000000    -1.792000000    -1.244000000
H     0.155000000    -2.334000000    -2.126000000
C     1.578000000    -2.275000000    -0.469000000
C     2.251000000    -3.486000000    -0.974000000
O     2.013000000    -3.846000000    -2.115000000
O     2.962000000    -4.205000000    -0.336000000
O     6.967000000    -5.005000000    -0.649000000
H     6.599000000    -4.744000000     0.195000000
H     6.205000000    -5.120000000    -1.217000000
O     4.267000000    -2.266000000    -6.440000000
H     3.966000000    -2.162000000    -5.538000000
H     3.855000000    -3.077000000    -6.738000000
O     0.881000000    -6.304000000    -6.535000000
H     1.462000000    -6.989000000    -6.865000000
H     1.340000000    -5.946000000    -5.775000000
O     7.238000000    -1.654000000    -3.889000000
H     6.922000000    -1.786000000    -2.995000000
H     6.730000000    -2.270000000    -4.417000000
O     7.608000000    -7.347000000    -1.735000000
H     7.683000000    -6.509000000    -1.279000000
H     7.411000000    -7.111000000    -2.641000000
O     4.438000000    -8.463000000    -1.871000000
H     4.291000000    -7.518000000    -1.835000000
H     5.216000000    -8.564000000    -2.418000000
O     8.935000000    -3.341000000    -1.876000000
H     8.927000000    -3.770000000    -2.732000000
H     8.426000000    -3.923000000    -1.312000000
O     7.226000000    -4.410000000     2.291000000
H     6.480000000    -3.893000000     1.988000000
H     7.005000000    -5.311000000     2.052000000
O     0.903000000    -7.323000000    -1.954000000
H     1.418000000    -7.863000000    -1.355000000
H     0.905000000    -6.453000000    -1.555000000
O     4.288000000    -5.701000000    -2.025000000
H     3.839000000    -5.848000000    -2.858000000
H     3.660000000    -5.207000000    -1.498000000
O     2.312000000    -5.803000000    -3.860000000
H     1.853000000    -5.150000000    -3.332000000
H     2.023000000    -6.644000000    -3.506000000
O     7.538000000    -1.732000000     0.588000000
H     8.305000000    -1.371000000     0.144000000
H     7.493000000    -1.253000000     1.416000000
O     3.723000000    -2.204000000    -3.521000000
H     4.392000000    -2.031000000    -2.858000000
H     3.107000000    -2.797000000    -3.091000000
O     5.643000000    -1.672000000    -1.425000000
H     5.728000000    -0.719000000    -1.421000000
H     6.317000000    -1.975000000    -0.816000000
O     2.610000000    -8.703000000     0.155000000
H     3.156000000    -8.844000000    -0.619000000
H     3.030000000    -7.976000000     0.615000000
O     3.953000000    -6.572000000     1.015000000
H     4.794000000    -6.609000000     1.470000000
H     3.822000000    -5.643000000     0.826000000
O     5.115000000    -3.459000000     1.052000000
H     4.321000000    -3.583000000     0.530000000
H     5.426000000    -2.587000000     0.810000000
O     3.411000000    -7.460000000     4.189000000
H     2.829000000    -6.897000000     3.678000000
H     2.907000000    -7.675000000     4.974000000
O     6.388000000    -5.789000000    -4.088000000
H     6.442000000    -5.984000000    -5.024000000
H     5.458000000    -5.629000000    -3.930000000
