215
-1450.38189
C    -4.641000000    -2.315000000    -2.146000000
H    -4.971000000    -1.488000000    -2.769000000
C    -4.294000000    -2.149000000    -0.880000000
C    -4.057000000    -3.271000000    -0.033000000
H    -3.881000000    -3.092000000     1.024000000
C    -4.292000000    -0.764000000    -0.242000000
O    -5.133000000     0.165000000    -0.898000000
H    -3.310000000    -0.268000000    -0.241000000
O    -4.729000000    -0.868000000     1.123000000
C    -3.898000000    -0.283000000     2.059000000
C    -2.973000000    -1.065000000     2.798000000
H    -2.870000000    -2.134000000     2.628000000
C    -2.165000000    -0.415000000     3.769000000
O    -1.238000000    -1.146000000     4.503000000
C    -2.274000000     0.949000000     3.955000000
C    -1.402000000     1.755000000     4.946000000
H    -1.976000000     2.623000000     5.278000000
C    -0.036000000     2.183000000     4.400000000
C     0.191000000     3.439000000     3.797000000
H    -0.656000000     4.116000000     3.718000000
H    -1.243000000     1.162000000     5.849000000
C    -3.177000000     1.755000000     3.249000000
H    -3.268000000     2.823000000     3.432000000
C    -3.968000000     1.097000000     2.280000000
C    -5.031000000     1.870000000     1.476000000
H    -5.322000000     2.718000000     2.100000000
H    -5.959000000     1.298000000     1.405000000
C    -4.494000000     2.254000000     0.085000000
C    -3.737000000     3.381000000     0.005000000
H    -3.596000000     4.100000000     0.809000000
C    -4.642000000     1.411000000    -0.992000000
C    -3.972000000     1.782000000    -2.169000000
H    -3.980000000     0.998000000    -2.922000000
C    -3.177000000     2.925000000    -2.315000000
O    -2.366000000     3.126000000    -3.433000000
C    -0.919000000     2.927000000    -3.336000000
C    -0.391000000     2.025000000    -4.473000000
C     0.849000000     2.203000000    -5.074000000
H     1.536000000     2.951000000    -4.685000000
C    -1.215000000     0.957000000    -4.930000000
H    -2.178000000     0.747000000    -4.471000000
O    -0.185000000     4.159000000    -3.167000000
H    -0.779000000     2.339000000    -2.417000000
C    -3.112000000     3.758000000    -1.236000000
C    -2.236000000     5.003000000    -1.301000000
H    -2.726000000     5.770000000    -0.699000000
H    -2.470000000     5.400000000    -2.291000000
C    -0.771000000     4.632000000    -0.920000000
C    -0.299000000     4.681000000     0.380000000
H    -0.903000000     5.012000000     1.221000000
C     0.222000000     4.337000000    -1.890000000
C     1.454000000     3.859000000    -1.562000000
H     2.088000000     3.485000000    -2.362000000
C     1.929000000     4.055000000    -0.270000000
O     3.182000000     3.607000000     0.067000000
C     3.343000000     2.429000000     0.963000000
C     4.340000000     1.433000000     0.414000000
C     4.442000000     1.271000000    -0.981000000
H     3.797000000     1.740000000    -1.720000000
C     5.022000000     0.561000000     1.263000000
H     4.903000000     0.627000000     2.341000000
O     3.502000000     2.732000000     2.418000000
H     2.388000000     1.883000000     0.940000000
C     1.020000000     4.454000000     0.750000000
C     1.472000000     4.803000000     2.157000000
H     0.893000000     5.509000000     2.756000000
H     2.465000000     5.257000000     2.187000000
C     1.393000000     3.672000000     3.115000000
C     2.414000000     2.695000000     3.267000000
C     2.266000000     1.534000000     4.022000000
H     3.067000000     0.814000000     4.171000000
C     0.986000000     1.247000000     4.430000000
O     0.865000000    -0.052000000     4.851000000
C     0.155000000    -0.950000000     4.044000000
H     0.105000000    -0.680000000     2.979000000
C     0.889000000    -2.303000000     4.112000000
C     0.225000000    -3.413000000     3.683000000
H    -0.801000000    -3.431000000     3.324000000
C     2.239000000    -2.443000000     4.470000000
H     2.743000000    -1.545000000     4.818000000
C     2.919000000    -3.659000000     4.403000000
O     4.191000000    -3.729000000     4.808000000
C     2.248000000    -4.772000000     3.870000000
H     2.697000000    -5.761000000     3.838000000
C     0.905000000    -4.629000000     3.488000000
O     0.201000000    -5.606000000     2.822000000
C    -1.147000000    -5.670000000     2.757000000
C    -1.764000000    -5.730000000     1.502000000
H    -1.139000000    -5.584000000     0.625000000
C    -1.853000000    -5.925000000     3.913000000
H    -1.306000000    -6.021000000     4.847000000
C    -3.282000000    -5.926000000     3.833000000
H    -3.891000000    -5.976000000     4.731000000
C    -3.885000000    -5.790000000     2.542000000
H    -4.966000000    -5.833000000     2.442000000
C    -3.126000000    -5.724000000     1.390000000
O    -3.749000000    -5.668000000     0.155000000
C    -3.997000000    -4.594000000    -0.578000000
C    -4.239000000    -4.701000000    -1.915000000
H    -4.164000000    -5.714000000    -2.303000000
C    -4.548000000    -3.604000000    -2.724000000
O    -4.726000000    -3.726000000    -4.113000000
C    -4.398000000    -2.625000000    -4.943000000
C    -3.072000000    -2.334000000    -5.206000000
H    -2.298000000    -2.894000000    -4.686000000
C    -5.348000000    -1.931000000    -5.639000000
H    -6.390000000    -2.102000000    -5.379000000
C    -4.962000000    -0.868000000    -6.493000000
H    -5.701000000    -0.208000000    -6.941000000
C    -3.603000000    -0.591000000    -6.761000000
H    -3.372000000     0.163000000    -7.510000000
C    -2.680000000    -1.358000000    -6.108000000
O    -1.342000000    -1.083000000    -6.205000000
C    -0.724000000     0.062000000    -5.890000000
C     0.586000000     0.210000000    -6.465000000
H     1.078000000    -0.553000000    -7.063000000
C     1.306000000     1.319000000    -6.094000000
O     2.552000000     1.428000000    -6.552000000
C     3.636000000     1.712000000    -5.712000000
C     3.866000000     0.814000000    -4.653000000
H     3.117000000     0.068000000    -4.403000000
C     4.606000000     2.677000000    -6.006000000
H     4.480000000     3.325000000    -6.870000000
C     5.651000000     2.839000000    -5.162000000
H     6.378000000     3.629000000    -5.328000000
C     5.853000000     1.986000000    -4.078000000
H     6.743000000     2.047000000    -3.457000000
C     4.914000000     0.951000000    -3.821000000
O     5.211000000     0.016000000    -2.900000000
C     5.198000000     0.256000000    -1.517000000
C     5.838000000    -0.616000000    -0.679000000
H     6.272000000    -1.518000000    -1.104000000
C     5.799000000    -0.436000000     0.695000000
O     6.488000000    -1.317000000     1.493000000
C     6.362000000    -1.500000000     2.868000000
C     7.036000000    -0.848000000     3.891000000
H     7.875000000    -0.217000000     3.611000000
C     6.799000000    -1.140000000     5.264000000
H     7.206000000    -0.610000000     6.121000000
C     5.907000000    -2.133000000     5.562000000
H     5.775000000    -2.476000000     6.585000000
C     5.097000000    -2.731000000     4.504000000
C     5.391000000    -2.481000000     3.229000000
H     4.809000000    -2.997000000     2.470000000
C     1.797000000    -1.807000000     0.335000000
H     2.398000000    -2.523000000     0.890000000
C     1.578000000    -0.557000000     0.874000000
H     1.969000000    -0.361000000     1.869000000
C     0.634000000     0.297000000     0.250000000
H     0.496000000     1.301000000     0.594000000
C     0.045000000    -0.130000000    -0.960000000
H    -0.724000000     0.518000000    -1.374000000
C     0.401000000    -1.307000000    -1.605000000
H     0.015000000    -1.702000000    -2.542000000
C     1.189000000    -2.238000000    -0.887000000
C     1.497000000    -3.629000000    -1.413000000
O     1.195000000    -3.927000000    -2.586000000
O     2.226000000    -4.397000000    -0.854000000
O     6.836000000    -3.634000000    -3.234000000
H     6.140000000    -3.515000000    -3.881000000
H     6.688000000    -4.512000000    -2.883000000
O     3.333000000    -1.971000000    -6.676000000
H     2.751000000    -2.194000000    -5.949000000
H     2.940000000    -2.398000000    -7.437000000
O     0.866000000    -9.458000000    -0.651000000
H     1.680000000    -9.959000000    -0.692000000
H     1.092000000    -8.673000000    -0.152000000
O     3.221000000    -8.225000000    -2.240000000
H     2.444000000    -8.268000000    -1.682000000
H     3.415000000    -9.139000000    -2.451000000
O     6.405000000    -3.975000000    -6.691000000
H     5.910000000    -4.249000000    -5.919000000
H     6.108000000    -3.081000000    -6.861000000
O     6.064000000    -6.001000000    -1.844000000
H     6.956000000    -6.328000000    -1.958000000
H     5.538000000    -6.520000000    -2.452000000
O    -0.178000000    -6.066000000    -2.942000000
H    -0.240000000    -6.312000000    -2.019000000
H     0.336000000    -5.259000000    -2.940000000
O     3.150000000    -5.653000000    -3.401000000
H     3.037000000    -6.410000000    -2.828000000
H     2.940000000    -4.900000000    -2.848000000
O     1.770000000    -2.825000000    -4.752000000
H     1.723000000    -3.054000000    -3.824000000
H     1.248000000    -3.497000000    -5.191000000
O    -2.606000000    -7.416000000    -3.347000000
H    -2.452000000    -7.531000000    -2.410000000
H    -1.974000000    -6.749000000    -3.614000000
O     3.292000000    -7.035000000    -5.837000000
H     3.358000000    -6.417000000    -5.110000000
H     2.422000000    -7.424000000    -5.743000000
O     4.718000000    -3.835000000    -4.582000000
H     4.151000000    -4.530000000    -4.249000000
H     4.136000000    -3.084000000    -4.694000000
O     4.671000000    -8.332000000     1.027000000
H     5.382000000    -8.408000000     0.390000000
H     4.271000000    -7.483000000     0.840000000
O    -1.826000000    -8.116000000    -0.700000000
H    -1.059000000    -8.664000000    -0.869000000
H    -2.212000000    -8.484000000     0.094000000
O     1.338000000    -6.836000000    -0.101000000
H     1.234000000    -6.433000000     0.762000000
H     1.736000000    -6.151000000    -0.638000000
O     4.520000000    -5.703000000     0.203000000
H     5.196000000    -5.670000000    -0.475000000
H     3.904000000    -5.012000000    -0.039000000
O     0.073000000    -4.704000000    -6.008000000
H     0.455000000    -5.421000000    -5.501000000
H    -0.786000000    -5.031000000    -6.274000000
O     0.688000000    -7.284000000    -5.241000000
H     0.492000000    -6.982000000    -4.354000000
H     0.314000000    -8.165000000    -5.282000000
O     6.403000000    -5.712000000     2.357000000
H     6.796000000    -6.579000000     2.253000000
H     5.983000000    -5.537000000     1.515000000
