215
-1412.48231
C    -4.881000000    -1.422000000    -1.394000000
H    -5.587000000    -0.710000000    -1.813000000
C    -4.319000000    -1.251000000    -0.102000000
C    -3.561000000    -2.350000000     0.477000000
H    -3.033000000    -2.214000000     1.418000000
C    -4.280000000     0.069000000     0.571000000
O    -4.833000000     1.090000000    -0.258000000
H    -3.204000000     0.294000000     0.584000000
O    -4.701000000     0.259000000     1.961000000
C    -3.785000000     1.002000000     2.733000000
C    -3.087000000     0.259000000     3.706000000
H    -3.123000000    -0.827000000     3.721000000
C    -2.082000000     0.896000000     4.427000000
O    -1.325000000     0.008000000     5.146000000
C    -1.798000000     2.259000000     4.341000000
C    -0.697000000     2.910000000     5.041000000
H    -0.871000000     3.980000000     5.171000000
C     0.571000000     2.764000000     4.199000000
C     1.063000000     3.788000000     3.347000000
H     0.441000000     4.669000000     3.210000000
H    -0.495000000     2.477000000     6.023000000
C    -2.636000000     3.019000000     3.532000000
H    -2.504000000     4.098000000     3.540000000
C    -3.601000000     2.364000000     2.710000000
C    -4.375000000     3.230000000     1.687000000
H    -4.423000000     4.304000000     1.881000000
H    -5.347000000     2.747000000     1.572000000
C    -3.672000000     3.187000000     0.328000000
C    -2.764000000     4.166000000    -0.144000000
H    -2.646000000     5.003000000     0.539000000
C    -3.905000000     2.111000000    -0.525000000
C    -3.328000000     2.026000000    -1.807000000
H    -3.565000000     1.169000000    -2.433000000
C    -2.488000000     2.988000000    -2.235000000
O    -1.922000000     2.891000000    -3.414000000
C    -0.561000000     2.401000000    -3.480000000
C    -0.328000000     1.486000000    -4.695000000
C     0.935000000     1.207000000    -5.234000000
H     1.791000000     1.744000000    -4.834000000
C    -1.431000000     0.724000000    -5.157000000
H    -2.397000000     0.735000000    -4.658000000
O     0.225000000     3.537000000    -3.591000000
H    -0.213000000     1.852000000    -2.593000000
C    -2.162000000     4.105000000    -1.402000000
C    -1.281000000     5.256000000    -1.817000000
H    -1.492000000     6.159000000    -1.241000000
H    -1.428000000     5.395000000    -2.890000000
C     0.108000000     4.730000000    -1.466000000
C     0.639000000     4.903000000    -0.186000000
H     0.053000000     5.517000000     0.494000000
C     0.834000000     3.922000000    -2.409000000
C     2.053000000     3.343000000    -2.030000000
H     2.622000000     2.672000000    -2.668000000
C     2.550000000     3.542000000    -0.800000000
O     3.696000000     2.884000000    -0.472000000
C     3.506000000     1.733000000     0.367000000
C     4.399000000     0.579000000    -0.155000000
C     4.583000000     0.208000000    -1.500000000
H     4.287000000     0.913000000    -2.273000000
C     4.772000000    -0.357000000     0.772000000
H     4.606000000    -0.145000000     1.825000000
O     3.799000000     2.174000000     1.786000000
H     2.446000000     1.442000000     0.335000000
C     1.926000000     4.410000000     0.095000000
C     2.478000000     4.721000000     1.496000000
H     2.223000000     5.742000000     1.785000000
H     3.566000000     4.748000000     1.408000000
C     2.155000000     3.643000000     2.528000000
C     2.778000000     2.443000000     2.605000000
C     2.346000000     1.364000000     3.377000000
H     2.838000000     0.395000000     3.381000000
C     1.322000000     1.657000000     4.255000000
O     0.997000000     0.657000000     5.063000000
C    -0.082000000    -0.323000000     4.586000000
H    -0.085000000    -0.063000000     3.517000000
C     0.338000000    -1.814000000     4.726000000
C    -0.635000000    -2.809000000     4.594000000
H    -1.693000000    -2.567000000     4.655000000
C     1.686000000    -2.204000000     4.997000000
H     2.491000000    -1.521000000     5.256000000
C     2.092000000    -3.533000000     5.179000000
O     3.398000000    -3.882000000     5.397000000
C     1.121000000    -4.527000000     4.961000000
H     1.442000000    -5.559000000     5.077000000
C    -0.220000000    -4.157000000     4.738000000
O    -1.184000000    -5.115000000     4.718000000
C    -2.125000000    -5.283000000     3.728000000
C    -1.893000000    -4.820000000     2.394000000
H    -0.919000000    -4.388000000     2.181000000
C    -3.315000000    -5.794000000     4.122000000
H    -3.572000000    -6.098000000     5.133000000
C    -4.352000000    -6.057000000     3.197000000
H    -5.329000000    -6.440000000     3.480000000
C    -4.086000000    -5.688000000     1.841000000
H    -4.823000000    -5.928000000     1.079000000
C    -2.999000000    -4.920000000     1.487000000
O    -2.825000000    -4.615000000     0.153000000
C    -3.486000000    -3.571000000    -0.303000000
C    -3.925000000    -3.672000000    -1.616000000
H    -3.737000000    -4.613000000    -2.126000000
C    -4.631000000    -2.588000000    -2.163000000
O    -5.287000000    -2.811000000    -3.333000000
C    -5.080000000    -2.118000000    -4.466000000
C    -3.820000000    -2.118000000    -5.028000000
H    -2.970000000    -2.573000000    -4.525000000
C    -6.170000000    -1.400000000    -5.045000000
H    -7.152000000    -1.520000000    -4.596000000
C    -5.874000000    -0.582000000    -6.158000000
H    -6.655000000     0.060000000    -6.557000000
C    -4.585000000    -0.474000000    -6.614000000
H    -4.305000000     0.321000000    -7.300000000
C    -3.546000000    -1.160000000    -5.994000000
O    -2.331000000    -1.072000000    -6.571000000
C    -1.264000000    -0.251000000    -6.177000000
C    -0.091000000    -0.343000000    -6.871000000
H     0.159000000    -1.080000000    -7.630000000
C     1.049000000     0.288000000    -6.286000000
O     2.324000000    -0.032000000    -6.717000000
C     3.517000000     0.182000000    -6.036000000
C     3.778000000    -0.478000000    -4.877000000
H     2.899000000    -0.994000000    -4.499000000
C     4.556000000     0.822000000    -6.702000000
H     4.490000000     1.168000000    -7.730000000
C     5.764000000     0.972000000    -6.024000000
H     6.492000000     1.611000000    -6.518000000
C     5.958000000     0.302000000    -4.868000000
H     6.939000000     0.435000000    -4.421000000
C     5.025000000    -0.531000000    -4.316000000
O     5.234000000    -1.329000000    -3.254000000
C     5.166000000    -1.022000000    -1.921000000
C     5.494000000    -1.930000000    -0.909000000
H     5.870000000    -2.937000000    -1.071000000
C     5.261000000    -1.576000000     0.423000000
O     5.711000000    -2.478000000     1.319000000
C     5.575000000    -2.552000000     2.700000000
C     6.729000000    -2.133000000     3.447000000
H     7.620000000    -1.760000000     2.949000000
C     6.736000000    -2.282000000     4.859000000
H     7.605000000    -1.997000000     5.446000000
C     5.582000000    -2.811000000     5.495000000
H     5.631000000    -2.778000000     6.580000000
C     4.524000000    -3.312000000     4.795000000
C     4.583000000    -3.217000000     3.405000000
H     3.752000000    -3.681000000     2.880000000
C     0.970000000    -2.106000000     0.066000000
H     1.775000000    -2.666000000     0.536000000
C     0.644000000    -0.787000000     0.389000000
H     1.095000000    -0.250000000     1.219000000
C    -0.320000000    -0.090000000    -0.444000000
H    -0.571000000     0.877000000    -0.198000000
C    -0.929000000    -0.712000000    -1.501000000
H    -1.674000000    -0.160000000    -2.069000000
C    -0.649000000    -2.042000000    -1.775000000
H    -1.158000000    -2.462000000    -2.639000000
C     0.365000000    -2.692000000    -1.086000000
C     0.863000000    -4.126000000    -1.557000000
O     0.459000000    -4.619000000    -2.600000000
O     1.663000000    -4.686000000    -0.899000000
O     4.070000000    -5.616000000    -0.325000000
H     3.277000000    -5.175000000    -0.627000000
H     3.763000000    -6.236000000     0.337000000
O     4.235000000    -4.444000000    -4.214000000
H     3.761000000    -3.620000000    -4.105000000
H     3.606000000    -5.028000000    -4.639000000
O    -3.540000000    -4.853000000    -6.479000000
H    -2.803000000    -5.034000000    -5.896000000
H    -4.079000000    -5.644000000    -6.437000000
O     0.406000000    -4.679000000    -7.346000000
H     0.259000000    -5.388000000    -7.972000000
H     0.044000000    -5.007000000    -6.523000000
O    -1.632000000    -9.153000000    -0.694000000
H    -0.950000000    -8.484000000    -0.748000000
H    -1.942000000    -9.108000000     0.210000000
O     6.897000000    -3.735000000    -4.693000000
H     5.982000000    -3.876000000    -4.451000000
H     7.068000000    -4.386000000    -5.373000000
O     4.544000000    -8.116000000    -3.881000000
H     5.263000000    -7.502000000    -3.734000000
H     3.752000000    -7.592000000    -3.760000000
O    -1.712000000    -6.050000000    -2.490000000
H    -1.838000000    -6.303000000    -1.576000000
H    -0.938000000    -5.487000000    -2.479000000
O     1.867000000    -6.709000000    -3.408000000
H     1.371000000    -5.912000000    -3.221000000
H     2.005000000    -7.112000000    -2.551000000
O     1.749000000    -3.609000000    -4.659000000
H     1.237000000    -4.103000000    -4.019000000
H     1.097000000    -3.224000000    -5.243000000
O     1.308000000    -7.779000000    -6.731000000
H     1.641000000    -8.657000000    -6.919000000
H     1.277000000    -7.735000000    -5.775000000
O     5.720000000    -5.997000000    -2.566000000
H     5.174000000    -5.923000000    -1.783000000
H     5.294000000    -5.432000000    -3.210000000
O     2.336000000    -8.427000000    -1.257000000
H     1.911000000    -8.794000000    -0.482000000
H     3.272000000    -8.486000000    -1.067000000
O     0.156000000    -6.933000000    -0.677000000
H     0.947000000    -7.416000000    -0.920000000
H     0.408000000    -6.012000000    -0.743000000
O     1.653000000    -5.507000000     2.003000000
H     1.583000000    -5.086000000     1.146000000
H     2.449000000    -6.035000000     1.946000000
O    -2.356000000    -7.782000000    -4.266000000
H    -2.172000000    -7.250000000    -3.492000000
H    -3.242000000    -7.530000000    -4.525000000
O    -1.392000000    -5.377000000    -5.203000000
H    -0.774000000    -5.237000000    -4.485000000
H    -1.488000000    -6.328000000    -5.254000000
O     3.532000000    -7.148000000     1.863000000
H     3.089000000    -7.943000000     1.567000000
H     4.009000000    -7.417000000     2.648000000
O    -0.281000000    -7.963000000     2.706000000
H     0.335000000    -8.618000000     2.377000000
H     0.148000000    -7.125000000     2.536000000
