215
-1446.35324
C    -4.106000000    -1.799000000    -2.237000000
H    -4.430000000    -0.861000000    -2.682000000
C    -3.925000000    -1.806000000    -0.825000000
C    -3.512000000    -2.936000000    -0.187000000
H    -3.343000000    -2.883000000     0.885000000
C    -3.982000000    -0.482000000    -0.092000000
O    -4.896000000     0.446000000    -0.648000000
H    -2.967000000    -0.057000000    -0.084000000
O    -4.353000000    -0.644000000     1.312000000
C    -3.768000000     0.014000000     2.365000000
C    -3.019000000    -0.768000000     3.326000000
H    -3.140000000    -1.846000000     3.271000000
C    -2.187000000    -0.099000000     4.212000000
O    -1.329000000    -0.903000000     4.842000000
C    -2.067000000     1.269000000     4.289000000
C    -1.127000000     1.983000000     5.200000000
H    -1.445000000     3.001000000     5.434000000
C     0.165000000     2.169000000     4.444000000
C     0.489000000     3.321000000     3.681000000
H    -0.283000000     4.087000000     3.677000000
H    -0.981000000     1.417000000     6.122000000
C    -2.898000000     1.993000000     3.415000000
H    -2.909000000     3.079000000     3.449000000
C    -3.764000000     1.406000000     2.518000000
C    -4.624000000     2.297000000     1.619000000
H    -4.877000000     3.240000000     2.109000000
H    -5.528000000     1.692000000     1.531000000
C    -4.015000000     2.547000000     0.257000000
C    -3.307000000     3.720000000     0.014000000
H    -2.924000000     4.319000000     0.836000000
C    -4.278000000     1.695000000    -0.817000000
C    -3.733000000     2.020000000    -2.034000000
H    -3.823000000     1.317000000    -2.857000000
C    -2.942000000     3.157000000    -2.241000000
O    -2.107000000     3.057000000    -3.343000000
C    -0.745000000     2.711000000    -3.226000000
C    -0.380000000     2.051000000    -4.518000000
C     0.960000000     2.050000000    -4.951000000
H     1.689000000     2.512000000    -4.290000000
C    -1.331000000     1.329000000    -5.198000000
H    -2.320000000     1.142000000    -4.790000000
O     0.139000000     3.859000000    -2.989000000
H    -0.547000000     1.944000000    -2.463000000
C    -2.671000000     4.008000000    -1.140000000
C    -1.726000000     5.180000000    -1.169000000
H    -2.025000000     5.978000000    -0.487000000
H    -1.662000000     5.556000000    -2.192000000
C    -0.318000000     4.730000000    -0.794000000
C     0.246000000     4.960000000     0.456000000
H    -0.400000000     5.414000000     1.203000000
C     0.501000000     4.021000000    -1.680000000
C     1.783000000     3.681000000    -1.397000000
H     2.484000000     3.153000000    -2.038000000
C     2.303000000     3.859000000    -0.176000000
O     3.579000000     3.252000000     0.049000000
C     3.490000000     2.100000000     0.840000000
C     4.317000000     0.926000000     0.305000000
C     4.261000000     0.660000000    -1.072000000
H     3.711000000     1.275000000    -1.780000000
C     4.866000000    -0.008000000     1.199000000
H     5.007000000     0.331000000     2.222000000
O     3.706000000     2.381000000     2.248000000
H     2.452000000     1.736000000     0.855000000
C     1.528000000     4.523000000     0.819000000
C     2.088000000     4.746000000     2.263000000
H     1.673000000     5.620000000     2.769000000
H     3.169000000     4.837000000     2.385000000
C     1.716000000     3.490000000     3.091000000
C     2.553000000     2.421000000     3.052000000
C     2.274000000     1.227000000     3.753000000
H     2.975000000     0.396000000     3.730000000
C     1.057000000     1.057000000     4.400000000
O     0.847000000    -0.185000000     5.005000000
C    -0.063000000    -1.022000000     4.257000000
H     0.000000000    -0.773000000     3.188000000
C     0.412000000    -2.474000000     4.312000000
C    -0.404000000    -3.574000000     4.138000000
H    -1.424000000    -3.350000000     3.836000000
C     1.745000000    -2.681000000     4.623000000
H     2.442000000    -1.872000000     4.827000000
C     2.296000000    -3.942000000     4.681000000
O     3.633000000    -4.143000000     4.941000000
C     1.461000000    -5.048000000     4.388000000
H     1.976000000    -5.994000000     4.244000000
C     0.058000000    -4.899000000     4.180000000
O    -0.592000000    -6.031000000     3.662000000
C    -1.789000000    -5.837000000     3.045000000
C    -1.855000000    -5.695000000     1.700000000
H    -0.913000000    -5.713000000     1.157000000
C    -2.930000000    -5.633000000     3.823000000
H    -2.920000000    -5.767000000     4.902000000
C    -4.152000000    -5.426000000     3.158000000
H    -5.083000000    -5.424000000     3.718000000
C    -4.172000000    -5.369000000     1.786000000
H    -5.088000000    -5.242000000     1.215000000
C    -2.965000000    -5.476000000     1.092000000
O    -2.965000000    -5.296000000    -0.261000000
C    -3.308000000    -4.095000000    -0.893000000
C    -3.564000000    -4.139000000    -2.277000000
H    -3.355000000    -5.023000000    -2.874000000
C    -3.997000000    -2.965000000    -2.929000000
O    -4.271000000    -3.011000000    -4.277000000
C    -4.251000000    -2.002000000    -5.162000000
C    -3.086000000    -1.628000000    -5.784000000
H    -2.241000000    -2.279000000    -5.573000000
C    -5.327000000    -1.265000000    -5.439000000
H    -6.244000000    -1.539000000    -4.923000000
C    -5.351000000    -0.157000000    -6.245000000
H    -6.237000000     0.463000000    -6.358000000
C    -4.213000000     0.159000000    -6.962000000
H    -4.282000000     1.004000000    -7.643000000
C    -3.036000000    -0.508000000    -6.657000000
O    -1.830000000    -0.150000000    -7.110000000
C    -0.981000000     0.742000000    -6.438000000
C     0.361000000     0.742000000    -6.856000000
H     0.759000000     0.208000000    -7.714000000
C     1.340000000     1.427000000    -6.096000000
O     2.602000000     1.457000000    -6.600000000
C     3.721000000     1.337000000    -5.734000000
C     3.690000000     0.336000000    -4.805000000
H     2.835000000    -0.321000000    -4.668000000
C     4.794000000     2.150000000    -5.914000000
H     4.796000000     2.952000000    -6.648000000
C     5.906000000     1.959000000    -5.068000000
H     6.756000000     2.633000000    -5.144000000
C     5.870000000     0.972000000    -4.019000000
H     6.737000000     0.729000000    -3.410000000
C     4.734000000     0.164000000    -3.954000000
O     4.625000000    -0.791000000    -2.927000000
C     4.771000000    -0.471000000    -1.576000000
C     5.287000000    -1.440000000    -0.696000000
H     5.628000000    -2.368000000    -1.150000000
C     5.354000000    -1.194000000     0.670000000
O     6.132000000    -1.974000000     1.413000000
C     5.875000000    -2.221000000     2.754000000
C     6.581000000    -1.551000000     3.722000000
H     7.280000000    -0.802000000     3.358000000
C     6.269000000    -1.682000000     5.092000000
H     6.934000000    -1.130000000     5.752000000
C     5.274000000    -2.515000000     5.462000000
H     4.987000000    -2.608000000     6.507000000
C     4.595000000    -3.240000000     4.515000000
C     4.850000000    -3.112000000     3.145000000
H     4.237000000    -3.668000000     2.440000000
C     1.932000000    -1.501000000     0.219000000
H     2.756000000    -2.032000000     0.689000000
C     1.332000000    -0.632000000     1.054000000
H     1.751000000    -0.397000000     2.029000000
C     0.203000000     0.071000000     0.538000000
H    -0.165000000     0.919000000     1.086000000
C    -0.330000000    -0.145000000    -0.745000000
H    -1.208000000     0.359000000    -1.141000000
C     0.278000000    -1.163000000    -1.464000000
H    -0.140000000    -1.417000000    -2.434000000
C     1.371000000    -1.892000000    -1.020000000
C     1.899000000    -3.045000000    -1.684000000
O     1.496000000    -3.413000000    -2.768000000
O     2.864000000    -3.715000000    -1.227000000
O     5.091000000    -5.319000000    -2.042000000
H     4.307000000    -4.946000000    -1.640000000
H     5.382000000    -5.989000000    -1.422000000
O     1.906000000    -2.618000000    -7.829000000
H     1.674000000    -2.663000000    -6.901000000
H     1.092000000    -2.822000000    -8.289000000
O    -2.204000000    -7.940000000    -1.270000000
H    -1.273000000    -8.153000000    -1.205000000
H    -2.223000000    -6.997000000    -1.434000000
O     4.025000000    -4.507000000    -8.348000000
H     4.092000000    -4.388000000    -7.401000000
H     3.459000000    -3.792000000    -8.640000000
O     0.439000000    -8.655000000    -1.444000000
H     0.847000000    -7.799000000    -1.576000000
H     1.069000000    -9.141000000    -0.911000000
O     3.981000000    -7.641000000    -3.652000000
H     3.723000000    -8.370000000    -3.089000000
H     4.778000000    -7.297000000    -3.248000000
O     8.083000000    -3.817000000     0.934000000
H     7.320000000    -3.273000000     0.739000000
H     7.771000000    -4.715000000     0.822000000
O     6.394000000    -5.452000000    -5.617000000
H     6.790000000    -5.438000000    -6.488000000
H     5.553000000    -5.890000000    -5.743000000
O    -0.149000000    -5.474000000    -3.301000000
H     0.468000000    -6.116000000    -2.948000000
H     0.265000000    -4.627000000    -3.134000000
O     3.836000000    -3.706000000    -4.387000000
H     3.046000000    -3.588000000    -3.859000000
H     4.464000000    -4.114000000    -3.791000000
O     0.961000000    -2.460000000    -5.269000000
H     0.959000000    -3.027000000    -4.498000000
H     1.000000000    -1.572000000    -4.913000000
O     6.749000000    -3.125000000    -4.241000000
H     6.764000000    -3.981000000    -4.668000000
H     6.111000000    -3.221000000    -3.534000000
O     4.921000000    -2.284000000    -6.684000000
H     4.005000000    -2.040000000    -6.816000000
H     4.952000000    -2.627000000    -5.791000000
O     2.101000000    -6.287000000    -1.992000000
H     2.636000000    -6.405000000    -2.777000000
H     2.246000000    -5.376000000    -1.739000000
O     3.653000000    -5.451000000     1.002000000
H     2.760000000    -5.501000000     0.661000000
H     4.033000000    -4.687000000     0.568000000
O    -0.929000000    -5.832000000    -6.223000000
H    -0.734000000    -5.635000000    -5.307000000
H    -1.665000000    -5.260000000    -6.440000000
O     1.405000000    -6.834000000    -7.405000000
H     0.722000000    -6.356000000    -6.933000000
H     1.282000000    -6.585000000    -8.321000000
O     5.942000000    -7.493000000    -0.427000000
H     5.995000000    -6.983000000     0.381000000
H     5.442000000    -8.273000000    -0.184000000
O     4.824000000    -6.915000000     3.152000000
H     4.834000000    -7.734000000     2.656000000
H     4.301000000    -6.318000000     2.618000000
