215
-1447.46160
C    -4.105000000    -2.748000000    -0.421000000
H    -4.562000000    -2.030000000    -1.097000000
C    -3.794000000    -2.378000000     0.895000000
C    -3.187000000    -3.318000000     1.777000000
H    -2.860000000    -3.022000000     2.770000000
C    -3.892000000    -0.855000000     1.181000000
O    -4.994000000    -0.153000000     0.415000000
H    -2.943000000    -0.333000000     0.989000000
O    -4.217000000    -0.563000000     2.529000000
C    -3.456000000     0.380000000     3.178000000
C    -2.448000000    -0.059000000     3.980000000
H    -2.274000000    -1.126000000     4.093000000
C    -1.554000000     0.824000000     4.599000000
O    -0.410000000     0.281000000     5.299000000
C    -1.619000000     2.262000000     4.295000000
C    -0.498000000     3.212000000     4.740000000
H    -0.946000000     4.196000000     4.894000000
C     0.667000000     3.290000000     3.740000000
C     0.704000000     4.367000000     2.808000000
H    -0.122000000     5.067000000     2.707000000
H     0.024000000     2.828000000     5.619000000
C    -2.652000000     2.622000000     3.421000000
H    -2.746000000     3.634000000     3.037000000
C    -3.647000000     1.737000000     2.977000000
C    -4.816000000     2.258000000     2.120000000
H    -5.018000000     3.274000000     2.468000000
H    -5.673000000     1.606000000     2.301000000
C    -4.435000000     2.125000000     0.615000000
C    -3.797000000     3.293000000     0.045000000
H    -3.605000000     4.244000000     0.535000000
C    -4.672000000     1.031000000    -0.134000000
C    -4.223000000     1.007000000    -1.439000000
H    -4.422000000     0.158000000    -2.089000000
C    -3.584000000     2.111000000    -2.035000000
O    -3.014000000     1.852000000    -3.273000000
C    -1.576000000     1.629000000    -3.404000000
C    -1.357000000     0.536000000    -4.460000000
C    -0.070000000     0.184000000    -4.828000000
H     0.795000000     0.613000000    -4.328000000
C    -2.396000000    -0.217000000    -4.974000000
H    -3.407000000    -0.062000000    -4.608000000
O    -0.939000000     2.870000000    -3.717000000
H    -1.238000000     1.227000000    -2.438000000
C    -3.398000000     3.248000000    -1.285000000
C    -2.670000000     4.395000000    -1.912000000
H    -2.916000000     5.378000000    -1.505000000
H    -3.052000000     4.596000000    -2.915000000
C    -1.120000000     4.247000000    -1.743000000
C    -0.554000000     4.829000000    -0.616000000
H    -1.302000000     5.294000000     0.021000000
C    -0.387000000     3.498000000    -2.650000000
C     0.948000000     3.314000000    -2.551000000
H     1.529000000     2.705000000    -3.240000000
C     1.620000000     3.982000000    -1.462000000
O     2.986000000     3.838000000    -1.340000000
C     3.295000000     2.689000000    -0.506000000
C     4.438000000     1.890000000    -1.112000000
C     4.596000000     1.795000000    -2.519000000
H     3.976000000     2.451000000    -3.124000000
C     5.227000000     1.120000000    -0.265000000
H     4.970000000     1.235000000     0.785000000
O     3.669000000     3.403000000     0.770000000
H     2.382000000     2.093000000    -0.357000000
C     0.843000000     4.732000000    -0.479000000
C     1.541000000     5.457000000     0.640000000
H     0.921000000     6.324000000     0.877000000
H     2.514000000     5.828000000     0.310000000
C     1.726000000     4.471000000     1.849000000
C     2.808000000     3.509000000     1.803000000
C     2.773000000     2.487000000     2.733000000
H     3.555000000     1.736000000     2.652000000
C     1.721000000     2.352000000     3.678000000
O     1.761000000     1.318000000     4.510000000
C     0.783000000     0.232000000     4.337000000
H     0.387000000     0.370000000     3.320000000
C     1.497000000    -1.117000000     4.341000000
C     0.788000000    -2.154000000     4.930000000
H    -0.291000000    -2.087000000     5.045000000
C     2.782000000    -1.351000000     3.878000000
H     3.377000000    -0.560000000     3.429000000
C     3.334000000    -2.564000000     3.864000000
O     4.430000000    -2.850000000     3.205000000
C     2.628000000    -3.620000000     4.371000000
H     3.101000000    -4.598000000     4.378000000
C     1.400000000    -3.417000000     4.972000000
O     0.781000000    -4.488000000     5.523000000
C    -0.508000000    -4.822000000     5.158000000
C    -0.860000000    -5.145000000     3.829000000
H    -0.221000000    -4.910000000     2.982000000
C    -1.495000000    -5.104000000     6.136000000
H    -1.239000000    -4.957000000     7.183000000
C    -2.741000000    -5.485000000     5.816000000
H    -3.539000000    -5.633000000     6.540000000
C    -3.116000000    -5.523000000     4.466000000
H    -4.140000000    -5.701000000     4.149000000
C    -2.155000000    -5.422000000     3.483000000
O    -2.491000000    -5.663000000     2.172000000
C    -3.014000000    -4.642000000     1.345000000
C    -3.374000000    -4.989000000     0.048000000
H    -3.334000000    -6.012000000    -0.315000000
C    -3.863000000    -4.032000000    -0.878000000
O    -3.994000000    -4.392000000    -2.184000000
C    -4.442000000    -3.673000000    -3.219000000
C    -3.514000000    -3.340000000    -4.202000000
H    -2.452000000    -3.496000000    -4.032000000
C    -5.827000000    -3.456000000    -3.465000000
H    -6.476000000    -3.758000000    -2.647000000
C    -6.225000000    -2.912000000    -4.696000000
H    -7.279000000    -2.735000000    -4.894000000
C    -5.297000000    -2.578000000    -5.660000000
H    -5.637000000    -2.211000000    -6.625000000
C    -3.964000000    -2.781000000    -5.423000000
O    -3.091000000    -2.128000000    -6.282000000
C    -2.131000000    -1.274000000    -5.845000000
C    -0.831000000    -1.567000000    -6.270000000
H    -0.551000000    -2.388000000    -6.925000000
C     0.184000000    -0.844000000    -5.785000000
O     1.479000000    -1.151000000    -6.204000000
C     2.444000000    -0.222000000    -6.242000000
C     3.446000000    -0.199000000    -5.281000000
H     3.389000000    -0.830000000    -4.398000000
C     2.505000000     0.780000000    -7.201000000
H     1.896000000     0.755000000    -8.101000000
C     3.550000000     1.657000000    -7.311000000
H     3.657000000     2.332000000    -8.157000000
C     4.463000000     1.727000000    -6.303000000
H     5.300000000     2.419000000    -6.253000000
C     4.427000000     0.753000000    -5.278000000
O     5.561000000     0.623000000    -4.464000000
C     5.480000000     0.867000000    -3.076000000
C     6.265000000     0.084000000    -2.222000000
H     7.038000000    -0.584000000    -2.594000000
C     6.158000000     0.251000000    -0.838000000
O     7.085000000    -0.322000000     0.037000000
C     6.707000000    -0.632000000     1.331000000
C     7.641000000    -0.388000000     2.364000000
H     8.543000000     0.171000000     2.127000000
C     7.453000000    -0.823000000     3.686000000
H     8.119000000    -0.686000000     4.534000000
C     6.336000000    -1.630000000     3.991000000
H     6.198000000    -2.022000000     4.995000000
C     5.453000000    -1.955000000     2.987000000
C     5.646000000    -1.412000000     1.666000000
H     4.991000000    -1.786000000     0.884000000
C     1.579000000    -0.699000000     0.120000000
H     2.609000000    -0.656000000     0.464000000
C     0.637000000     0.315000000     0.526000000
H     0.992000000     1.106000000     1.181000000
C    -0.741000000     0.152000000     0.182000000
H    -1.527000000     0.846000000     0.566000000
C    -1.041000000    -0.814000000    -0.774000000
H    -2.032000000    -0.799000000    -1.220000000
C    -0.144000000    -1.758000000    -1.154000000
H    -0.460000000    -2.538000000    -1.842000000
C     1.146000000    -1.740000000    -0.665000000
C     2.078000000    -2.876000000    -1.057000000
O     1.646000000    -3.717000000    -1.768000000
O     3.196000000    -3.040000000    -0.614000000
O     5.712000000    -3.242000000    -1.607000000
H     6.263000000    -2.983000000    -0.868000000
H     4.822000000    -3.236000000    -1.256000000
O     6.157000000    -6.033000000    -2.593000000
H     5.498000000    -5.424000000    -2.926000000
H     6.836000000    -5.471000000    -2.220000000
O     6.915000000    -8.400000000    -1.492000000
H     7.126000000    -8.884000000    -2.291000000
H     6.756000000    -7.505000000    -1.790000000
O     6.820000000    -4.843000000    -5.912000000
H     6.692000000    -4.093000000    -5.332000000
H     6.192000000    -4.707000000    -6.622000000
O     5.846000000    -2.890000000    -4.304000000
H     5.848000000    -2.997000000    -3.353000000
H     4.928000000    -2.729000000    -4.525000000
O     6.953000000    -1.060000000    -6.069000000
H     6.645000000    -1.704000000    -5.431000000
H     6.957000000    -0.231000000    -5.589000000
O     1.192000000    -8.472000000    -2.881000000
H     1.634000000    -7.623000000    -2.877000000
H     0.316000000    -8.287000000    -2.542000000
O    -0.927000000    -5.162000000    -5.543000000
H    -0.327000000    -4.600000000    -5.054000000
H    -1.277000000    -5.766000000    -4.888000000
O     2.690000000    -6.227000000    -2.457000000
H     3.221000000    -6.535000000    -1.722000000
H     2.421000000    -5.344000000    -2.205000000
O     0.886000000    -3.312000000    -4.262000000
H     1.408000000    -2.545000000    -4.499000000
H     1.274000000    -3.623000000    -3.445000000
O     3.766000000    -6.310000000    -4.858000000
H     4.190000000    -7.166000000    -4.803000000
H     3.225000000    -6.259000000    -4.070000000
O     3.649000000    -3.695000000    -6.024000000
H     3.845000000    -4.506000000    -5.555000000
H     2.875000000    -3.902000000    -6.548000000
O    -2.098000000    -7.065000000    -3.905000000
H    -3.013000000    -7.304000000    -3.759000000
H    -1.715000000    -7.037000000    -3.028000000
O     3.121000000    -7.486000000     3.122000000
H     3.881000000    -7.820000000     3.597000000
H     3.453000000    -6.729000000     2.640000000
O     9.018000000    -2.518000000    -2.598000000
H     8.157000000    -2.224000000    -2.300000000
H     9.026000000    -3.458000000    -2.416000000
O    -1.064000000    -7.494000000    -1.397000000
H    -0.709000000    -6.653000000    -1.107000000
H    -0.881000000    -8.093000000    -0.673000000
O    -0.284000000    -5.174000000    -0.420000000
H    -0.751000000    -4.752000000     0.301000000
H     0.234000000    -4.472000000    -0.814000000
O     3.824000000    -4.924000000     1.339000000
H     3.799000000    -4.389000000     2.132000000
H     3.712000000    -4.298000000     0.624000000
O     3.636000000    -7.490000000    -0.240000000
H     3.426000000    -6.891000000     0.476000000
H     3.199000000    -8.308000000    -0.004000000
