215
-1464.31351
C    -4.750000000    -1.787000000    -1.564000000
H    -4.879000000    -0.904000000    -2.185000000
C    -4.281000000    -1.567000000    -0.270000000
C    -3.897000000    -2.668000000     0.486000000
H    -3.424000000    -2.506000000     1.451000000
C    -4.082000000    -0.140000000     0.269000000
O    -4.813000000     0.820000000    -0.485000000
H    -3.020000000     0.093000000     0.101000000
O    -4.456000000    -0.143000000     1.648000000
C    -3.509000000     0.522000000     2.439000000
C    -2.751000000    -0.215000000     3.282000000
H    -2.923000000    -1.288000000     3.308000000
C    -1.803000000     0.391000000     4.036000000
O    -0.983000000    -0.458000000     4.744000000
C    -1.661000000     1.781000000     4.068000000
C    -0.699000000     2.606000000     4.918000000
H    -1.060000000     3.608000000     5.160000000
C     0.588000000     2.669000000     4.254000000
C     0.786000000     3.692000000     3.429000000
H     0.098000000     4.533000000     3.457000000
H    -0.538000000     2.142000000     5.893000000
C    -2.412000000     2.459000000     3.134000000
H    -2.166000000     3.516000000     3.071000000
C    -3.448000000     1.896000000     2.388000000
C    -4.293000000     2.784000000     1.525000000
H    -4.411000000     3.790000000     1.933000000
H    -5.341000000     2.478000000     1.551000000
C    -3.791000000     2.891000000     0.077000000
C    -3.022000000     3.982000000    -0.235000000
H    -2.782000000     4.732000000     0.515000000
C    -4.113000000     1.937000000    -0.871000000
C    -3.715000000     2.123000000    -2.172000000
H    -4.007000000     1.347000000    -2.874000000
C    -2.891000000     3.185000000    -2.538000000
O    -2.225000000     3.129000000    -3.744000000
C    -0.904000000     2.553000000    -3.735000000
C    -0.660000000     1.586000000    -4.878000000
C     0.679000000     1.343000000    -5.350000000
H     1.527000000     1.964000000    -5.072000000
C    -1.682000000     0.724000000    -5.242000000
H    -2.646000000     0.793000000    -4.744000000
O     0.081000000     3.534000000    -3.675000000
H    -0.766000000     1.948000000    -2.826000000
C    -2.531000000     4.129000000    -1.545000000
C    -1.550000000     5.214000000    -1.893000000
H    -1.801000000     6.143000000    -1.377000000
H    -1.585000000     5.407000000    -2.968000000
C    -0.141000000     4.733000000    -1.522000000
C     0.353000000     5.004000000    -0.265000000
H    -0.261000000     5.661000000     0.345000000
C     0.575000000     3.974000000    -2.451000000
C     1.771000000     3.386000000    -2.116000000
H     2.307000000     2.651000000    -2.711000000
C     2.260000000     3.627000000    -0.807000000
O     3.491000000     3.105000000    -0.523000000
C     3.437000000     2.052000000     0.398000000
C     4.253000000     0.818000000     0.013000000
C     4.405000000     0.510000000    -1.317000000
H     3.850000000     1.075000000    -2.062000000
C     4.895000000    -0.028000000     0.991000000
H     4.782000000     0.138000000     2.060000000
O     3.842000000     2.494000000     1.730000000
H     2.397000000     1.698000000     0.465000000
C     1.499000000     4.370000000     0.161000000
C     2.052000000     4.753000000     1.496000000
H     1.599000000     5.563000000     2.071000000
H     3.053000000     5.188000000     1.504000000
C     1.942000000     3.685000000     2.588000000
C     2.841000000     2.638000000     2.605000000
C     2.589000000     1.552000000     3.429000000
H     3.321000000     0.759000000     3.560000000
C     1.505000000     1.546000000     4.278000000
O     1.227000000     0.352000000     4.944000000
C     0.400000000    -0.663000000     4.310000000
H     0.562000000    -0.397000000     3.255000000
C     0.870000000    -2.103000000     4.419000000
C    -0.011000000    -3.196000000     4.218000000
H    -1.053000000    -3.007000000     3.974000000
C     2.231000000    -2.359000000     4.751000000
H     2.943000000    -1.539000000     4.699000000
C     2.734000000    -3.664000000     4.944000000
O     4.094000000    -3.821000000     5.247000000
C     1.829000000    -4.680000000     4.661000000
H     2.212000000    -5.685000000     4.817000000
C     0.476000000    -4.470000000     4.335000000
O    -0.437000000    -5.487000000     4.276000000
C    -1.756000000    -5.307000000     3.814000000
C    -2.032000000    -5.235000000     2.449000000
H    -1.147000000    -5.365000000     1.831000000
C    -2.752000000    -5.122000000     4.789000000
H    -2.522000000    -4.950000000     5.838000000
C    -4.070000000    -4.815000000     4.364000000
H    -4.915000000    -4.673000000     5.032000000
C    -4.334000000    -4.782000000     2.992000000
H    -5.355000000    -4.561000000     2.691000000
C    -3.348000000    -5.108000000     2.029000000
O    -3.688000000    -5.068000000     0.671000000
C    -4.155000000    -3.945000000     0.042000000
C    -4.602000000    -4.066000000    -1.298000000
H    -4.758000000    -5.073000000    -1.678000000
C    -4.968000000    -3.013000000    -2.061000000
O    -5.461000000    -3.246000000    -3.377000000
C    -5.124000000    -2.437000000    -4.403000000
C    -3.817000000    -2.194000000    -4.845000000
H    -2.961000000    -2.751000000    -4.472000000
C    -6.166000000    -1.765000000    -4.955000000
H    -7.128000000    -1.837000000    -4.453000000
C    -5.931000000    -0.922000000    -6.009000000
H    -6.749000000    -0.417000000    -6.517000000
C    -4.665000000    -0.769000000    -6.532000000
H    -4.603000000    -0.314000000    -7.518000000
C    -3.596000000    -1.398000000    -5.930000000
O    -2.341000000    -1.223000000    -6.539000000
C    -1.415000000    -0.335000000    -6.146000000
C    -0.120000000    -0.473000000    -6.663000000
H     0.116000000    -1.217000000    -7.419000000
C     0.940000000     0.340000000    -6.247000000
O     2.207000000     0.140000000    -6.682000000
C     3.254000000     0.402000000    -5.962000000
C     3.549000000    -0.465000000    -4.948000000
H     2.824000000    -1.225000000    -4.664000000
C     4.099000000     1.478000000    -6.234000000
H     3.871000000     2.236000000    -6.979000000
C     5.260000000     1.746000000    -5.496000000
H     5.873000000     2.582000000    -5.822000000
C     5.646000000     0.768000000    -4.509000000
H     6.622000000     0.833000000    -4.036000000
C     4.721000000    -0.237000000    -4.180000000
O     5.080000000    -1.000000000    -3.086000000
C     5.109000000    -0.618000000    -1.785000000
C     5.602000000    -1.500000000    -0.839000000
H     6.046000000    -2.411000000    -1.232000000
C     5.615000000    -1.146000000     0.543000000
O     6.181000000    -2.153000000     1.308000000
C     6.124000000    -2.149000000     2.683000000
C     7.229000000    -1.805000000     3.423000000
H     8.183000000    -1.627000000     2.934000000
C     7.281000000    -2.093000000     4.777000000
H     8.204000000    -1.970000000     5.338000000
C     6.220000000    -2.821000000     5.349000000
H     6.215000000    -3.084000000     6.404000000
C     5.024000000    -3.079000000     4.627000000
C     5.011000000    -2.771000000     3.236000000
H     4.132000000    -3.058000000     2.664000000
C     0.960000000    -1.833000000     0.122000000
H     1.682000000    -2.299000000     0.788000000
C     0.502000000    -0.529000000     0.253000000
H     0.869000000     0.132000000     1.034000000
C    -0.353000000     0.041000000    -0.647000000
H    -0.560000000     1.078000000    -0.591000000
C    -0.859000000    -0.730000000    -1.606000000
H    -1.446000000    -0.293000000    -2.410000000
C    -0.485000000    -2.061000000    -1.769000000
H    -0.930000000    -2.651000000    -2.566000000
C     0.424000000    -2.649000000    -0.870000000
C     0.819000000    -4.105000000    -1.080000000
O     0.365000000    -4.698000000    -2.046000000
O     1.499000000    -4.642000000    -0.287000000
O     3.258000000    -6.219000000    -1.657000000
H     2.526000000    -5.826000000    -1.181000000
H     3.956000000    -5.567000000    -1.605000000
O     2.077000000    -3.776000000    -4.466000000
H     1.840000000    -3.987000000    -3.563000000
H     1.239000000    -3.674000000    -4.917000000
O     0.334000000    -4.065000000    -6.995000000
H    -0.127000000    -3.676000000    -6.251000000
H    -0.349000000    -4.521000000    -7.487000000
O    -2.378000000    -8.327000000    -0.212000000
H    -1.491000000    -7.997000000    -0.070000000
H    -2.352000000    -9.228000000     0.109000000
O     6.165000000    -4.135000000    -3.427000000
H     6.906000000    -3.536000000    -3.524000000
H     5.630000000    -3.982000000    -4.206000000
O     5.109000000    -7.032000000     1.547000000
H     5.442000000    -7.428000000     2.352000000
H     4.855000000    -7.776000000     1.001000000
O     4.458000000    -3.670000000    -5.629000000
H     3.680000000    -3.760000000    -5.080000000
H     4.138000000    -3.265000000    -6.435000000
O    -1.903000000    -6.013000000    -2.243000000
H    -2.270000000    -6.264000000    -1.395000000
H    -1.140000000    -5.478000000    -2.024000000
O     0.879000000    -7.232000000    -2.975000000
H     0.423000000    -6.391000000    -2.936000000
H     1.792000000    -7.002000000    -3.148000000
O    -1.033000000    -4.292000000    -4.482000000
H    -0.560000000    -4.411000000    -3.658000000
H    -1.696000000    -4.982000000    -4.479000000
O    -0.595000000    -8.414000000    -4.925000000
H    -0.270000000    -9.314000000    -4.935000000
H    -0.156000000    -8.009000000    -4.176000000
O     3.287000000    -6.067000000    -5.820000000
H     2.561000000    -5.445000000    -5.770000000
H     4.058000000    -5.556000000    -5.576000000
O     4.163000000    -9.063000000    -0.291000000
H     4.386000000    -9.317000000    -1.187000000
H     3.234000000    -8.836000000    -0.332000000
O    -1.881000000    -8.856000000     2.774000000
H    -0.928000000    -8.770000000     2.789000000
H    -2.192000000    -8.010000000     2.452000000
O     0.240000000    -7.429000000    -0.282000000
H     0.496000000    -7.580000000    -1.192000000
H     0.838000000    -6.747000000     0.025000000
O     2.610000000    -5.808000000     1.845000000
H     2.338000000    -5.395000000     1.026000000
H     3.497000000    -6.124000000     1.673000000
O    -3.120000000    -8.774000000    -3.113000000
H    -2.539000000    -8.303000000    -2.516000000
H    -3.996000000    -8.452000000    -2.898000000
O    -2.668000000    -6.428000000    -5.077000000
H    -2.744000000    -6.536000000    -4.129000000
H    -2.011000000    -7.073000000    -5.339000000
O     0.863000000    -8.402000000     2.423000000
H     0.646000000    -8.347000000     1.492000000
H     1.501000000    -7.702000000     2.562000000
