215
-1441.58567
C    -4.097000000    -2.918000000    -0.046000000
H    -4.349000000    -2.515000000    -1.023000000
C    -3.977000000    -2.213000000     1.121000000
C    -3.653000000    -2.792000000     2.379000000
H    -3.480000000    -2.176000000     3.258000000
C    -3.996000000    -0.680000000     1.018000000
O    -4.996000000    -0.169000000     0.051000000
H    -3.041000000    -0.269000000     0.660000000
O    -4.147000000     0.038000000     2.297000000
C    -3.479000000     1.177000000     2.585000000
C    -2.544000000     1.055000000     3.562000000
H    -2.394000000     0.100000000     4.058000000
C    -1.767000000     2.080000000     3.882000000
O    -0.673000000     1.805000000     4.583000000
C    -1.921000000     3.303000000     3.245000000
C    -1.025000000     4.463000000     3.431000000
H    -1.544000000     5.421000000     3.361000000
C     0.214000000     4.361000000     2.612000000
C     0.206000000     4.916000000     1.261000000
H    -0.651000000     5.480000000     0.902000000
H    -0.704000000     4.459000000     4.475000000
C    -2.841000000     3.508000000     2.239000000
H    -2.924000000     4.500000000     1.802000000
C    -3.626000000     2.365000000     1.857000000
C    -4.806000000     2.550000000     0.822000000
H    -4.942000000     3.620000000     0.656000000
H    -5.723000000     2.007000000     1.060000000
C    -4.341000000     2.063000000    -0.457000000
C    -3.713000000     2.859000000    -1.390000000
H    -3.522000000     3.898000000    -1.136000000
C    -4.652000000     0.737000000    -0.855000000
C    -4.206000000     0.278000000    -2.115000000
H    -4.359000000    -0.751000000    -2.432000000
C    -3.571000000     1.127000000    -3.068000000
O    -3.006000000     0.555000000    -4.169000000
C    -1.564000000     0.326000000    -4.134000000
C    -1.290000000    -1.010000000    -4.823000000
C     0.100000000    -1.364000000    -5.052000000
H     0.865000000    -0.608000000    -4.896000000
C    -2.252000000    -1.997000000    -4.919000000
H    -3.250000000    -1.804000000    -4.536000000
O    -0.862000000     1.459000000    -4.788000000
H    -1.292000000     0.320000000    -3.068000000
C    -3.402000000     2.435000000    -2.642000000
C    -2.634000000     3.391000000    -3.522000000
H    -2.834000000     4.446000000    -3.320000000
H    -2.966000000     3.238000000    -4.551000000
C    -1.159000000     3.386000000    -3.296000000
C    -0.616000000     4.259000000    -2.425000000
H    -1.308000000     4.938000000    -1.933000000
C    -0.349000000     2.374000000    -3.883000000
C     1.066000000     2.378000000    -3.577000000
H     1.644000000     1.714000000    -4.215000000
C     1.627000000     3.369000000    -2.687000000
O     2.954000000     3.186000000    -2.294000000
C     3.178000000     2.583000000    -0.940000000
C     4.249000000     1.477000000    -0.944000000
C     4.185000000     0.420000000    -1.880000000
H     3.342000000     0.367000000    -2.564000000
C     5.352000000     1.506000000    -0.172000000
H     5.605000000     2.313000000     0.511000000
O     3.435000000     3.564000000     0.082000000
H     2.216000000     2.083000000    -0.753000000
C     0.723000000     4.249000000    -2.069000000
C     1.316000000     5.273000000    -1.023000000
H     0.550000000     6.051000000    -0.988000000
H     2.283000000     5.532000000    -1.458000000
C     1.326000000     4.737000000     0.399000000
C     2.384000000     3.961000000     0.868000000
C     2.464000000     3.594000000     2.197000000
H     3.365000000     3.106000000     2.558000000
C     1.384000000     3.697000000     3.008000000
O     1.435000000     2.846000000     4.067000000
C     0.642000000     1.604000000     3.945000000
H     0.343000000     1.535000000     2.888000000
C     1.374000000     0.433000000     4.360000000
C     0.770000000    -0.844000000     4.548000000
H    -0.283000000    -0.938000000     4.292000000
C     2.826000000     0.510000000     4.507000000
H     3.428000000     1.396000000     4.319000000
C     3.549000000    -0.577000000     4.958000000
O     4.907000000    -0.513000000     5.126000000
C     2.889000000    -1.784000000     5.258000000
H     3.515000000    -2.631000000     5.527000000
C     1.530000000    -1.918000000     5.039000000
O     0.992000000    -3.209000000     4.984000000
C    -0.315000000    -3.557000000     5.269000000
C    -1.214000000    -3.875000000     4.253000000
H    -0.916000000    -3.777000000     3.212000000
C    -0.657000000    -3.759000000     6.581000000
H     0.067000000    -3.625000000     7.381000000
C    -1.814000000    -4.378000000     6.878000000
H    -2.022000000    -4.400000000     7.945000000
C    -2.791000000    -4.645000000     5.900000000
H    -3.782000000    -5.061000000     6.060000000
C    -2.471000000    -4.387000000     4.570000000
O    -3.370000000    -4.857000000     3.589000000
C    -3.582000000    -4.175000000     2.438000000
C    -3.756000000    -4.968000000     1.264000000
H    -3.614000000    -6.037000000     1.396000000
C    -3.986000000    -4.337000000     0.026000000
O    -4.213000000    -5.164000000    -1.112000000
C    -4.544000000    -4.716000000    -2.308000000
C    -3.584000000    -4.830000000    -3.322000000
H    -2.604000000    -5.205000000    -3.040000000
C    -5.848000000    -4.322000000    -2.691000000
H    -6.681000000    -4.261000000    -1.995000000
C    -6.142000000    -3.923000000    -4.003000000
H    -7.148000000    -3.610000000    -4.271000000
C    -5.147000000    -3.927000000    -4.998000000
H    -5.411000000    -3.537000000    -5.978000000
C    -3.877000000    -4.384000000    -4.655000000
O    -2.827000000    -4.253000000    -5.570000000
C    -1.895000000    -3.307000000    -5.342000000
C    -0.559000000    -3.621000000    -5.621000000
H    -0.234000000    -4.569000000    -6.041000000
C     0.402000000    -2.656000000    -5.506000000
O     1.679000000    -3.064000000    -5.688000000
C     2.779000000    -2.249000000    -5.449000000
C     3.324000000    -2.246000000    -4.162000000
H     2.842000000    -2.929000000    -3.467000000
C     3.310000000    -1.453000000    -6.416000000
H     3.009000000    -1.450000000    -7.461000000
C     4.449000000    -0.664000000    -6.101000000
H     4.931000000    -0.008000000    -6.821000000
C     4.983000000    -0.687000000    -4.801000000
H     5.823000000    -0.028000000    -4.595000000
C     4.486000000    -1.581000000    -3.840000000
O     4.978000000    -1.740000000    -2.620000000
C     5.117000000    -0.634000000    -1.796000000
C     6.157000000    -0.647000000    -0.899000000
H     6.813000000    -1.503000000    -0.766000000
C     6.176000000     0.428000000    -0.025000000
O     7.132000000     0.425000000     0.940000000
C     6.842000000     0.852000000     2.243000000
C     7.500000000     1.891000000     2.877000000
H     8.238000000     2.485000000     2.344000000
C     7.202000000     2.176000000     4.235000000
H     7.741000000     2.990000000     4.713000000
C     6.283000000     1.423000000     4.940000000
H     6.052000000     1.689000000     5.968000000
C     5.699000000     0.351000000     4.335000000
C     5.966000000     0.048000000     2.978000000
H     5.531000000    -0.814000000     2.478000000
C     1.906000000    -0.921000000     0.891000000
H     2.839000000    -1.227000000     1.358000000
C     1.322000000     0.333000000     0.854000000
H     1.871000000     1.150000000     1.315000000
C     0.075000000     0.620000000     0.326000000
H    -0.354000000     1.646000000     0.450000000
C    -0.557000000    -0.411000000    -0.322000000
H    -1.486000000    -0.172000000    -0.833000000
C     0.056000000    -1.663000000    -0.434000000
H    -0.351000000    -2.453000000    -1.059000000
C     1.183000000    -1.962000000     0.261000000
C     1.653000000    -3.379000000     0.324000000
O     1.017000000    -4.294000000    -0.100000000
O     2.716000000    -3.604000000     0.888000000
O     2.437000000    -6.525000000    -0.272000000
H     1.925000000    -7.144000000     0.248000000
H     1.962000000    -5.697000000    -0.196000000
O     4.491000000    -4.925000000     4.702000000
H     5.227000000    -5.325000000     4.241000000
H     3.765000000    -4.968000000     4.079000000
O     7.209000000    -3.982000000    -0.326000000
H     6.472000000    -3.517000000     0.072000000
H     6.839000000    -4.392000000    -1.108000000
O     4.028000000    -4.245000000    -1.478000000
H     4.387000000    -3.358000000    -1.493000000
H     3.358000000    -4.221000000    -0.795000000
O     6.327000000    -6.288000000     2.961000000
H     7.111000000    -6.753000000     3.254000000
H     5.899000000    -6.896000000     2.358000000
O    -0.782000000    -7.094000000    -4.466000000
H    -0.619000000    -6.328000000    -3.915000000
H    -0.184000000    -6.988000000    -5.206000000
O     1.052000000    -6.864000000     4.347000000
H     1.558000000    -6.173000000     3.921000000
H     0.156000000    -6.731000000     4.035000000
O    -0.078000000    -5.017000000    -2.636000000
H    -0.247000000    -5.142000000    -1.702000000
H     0.805000000    -4.649000000    -2.673000000
O     5.084000000    -7.355000000    -0.861000000
H     5.344000000    -6.459000000    -1.078000000
H     4.192000000    -7.271000000    -0.524000000
O     1.829000000   -10.035000000    -1.063000000
H     2.655000000   -10.475000000    -0.862000000
H     1.832000000    -9.254000000    -0.509000000
O     4.652000000    -5.129000000    -4.052000000
H     5.481000000    -5.362000000    -3.634000000
H     4.058000000    -4.953000000    -3.323000000
O     2.647000000    -5.281000000     7.268000000
H     2.583000000    -4.708000000     6.504000000
H     2.923000000    -6.125000000     6.911000000
O     1.367000000    -8.335000000     1.390000000
H     1.543000000    -9.216000000     1.722000000
H     0.721000000    -7.975000000     1.997000000
O    -2.319000000    -7.424000000    -0.782000000
H    -3.160000000    -7.683000000    -1.158000000
H    -2.251000000    -7.933000000     0.026000000
O     2.311000000    -4.745000000     3.136000000
H     2.323000000    -4.449000000     2.226000000
H     1.992000000    -3.989000000     3.630000000
O     5.745000000    -8.815000000     1.346000000
H     5.545000000    -8.344000000     0.537000000
H     5.550000000    -9.730000000     1.145000000
O     5.269000000    -3.384000000     1.339000000
H     4.377000000    -3.406000000     0.992000000
H     5.207000000    -3.821000000     2.188000000
O    -1.439000000    -7.494000000     2.808000000
H    -2.046000000    -8.107000000     2.394000000
H    -1.382000000    -6.761000000     2.195000000
O    -0.651000000    -5.958000000     0.904000000
H    -0.052000000    -5.253000000     0.660000000
H    -0.904000000    -6.356000000     0.071000000
