215
-1475.64062
C    -4.243000000    -2.748000000    -0.631000000
H    -4.232000000    -2.181000000    -1.558000000
C    -4.207000000    -2.050000000     0.549000000
C    -4.102000000    -2.801000000     1.750000000
H    -3.998000000    -2.304000000     2.711000000
C    -3.926000000    -0.527000000     0.465000000
O    -4.812000000     0.128000000    -0.584000000
H    -2.852000000    -0.363000000     0.294000000
O    -4.234000000     0.055000000     1.762000000
C    -3.473000000     1.072000000     2.269000000
C    -2.529000000     0.717000000     3.209000000
H    -2.428000000    -0.285000000     3.616000000
C    -1.676000000     1.692000000     3.683000000
O    -0.689000000     1.254000000     4.524000000
C    -1.768000000     2.986000000     3.212000000
C    -0.760000000     4.023000000     3.668000000
H    -1.272000000     4.987000000     3.648000000
C     0.434000000     4.080000000     2.837000000
C     0.593000000     4.721000000     1.559000000
H    -0.193000000     5.351000000     1.151000000
H    -0.405000000     3.825000000     4.681000000
C    -2.778000000     3.294000000     2.320000000
H    -2.905000000     4.346000000     2.078000000
C    -3.631000000     2.360000000     1.815000000
C    -4.699000000     2.736000000     0.675000000
H    -4.945000000     3.798000000     0.746000000
H    -5.605000000     2.145000000     0.827000000
C    -4.089000000     2.477000000    -0.653000000
C    -3.227000000     3.407000000    -1.238000000
H    -2.955000000     4.303000000    -0.688000000
C    -4.268000000     1.199000000    -1.245000000
C    -3.777000000     0.957000000    -2.477000000
H    -3.905000000    -0.044000000    -2.881000000
C    -3.072000000     1.941000000    -3.163000000
O    -2.418000000     1.567000000    -4.323000000
C    -1.097000000     1.122000000    -4.149000000
C    -0.990000000    -0.184000000    -4.878000000
C     0.237000000    -0.770000000    -5.177000000
H     1.157000000    -0.235000000    -4.955000000
C    -2.149000000    -0.980000000    -5.128000000
H    -3.158000000    -0.643000000    -4.902000000
O    -0.072000000     2.077000000    -4.529000000
H    -0.936000000     0.955000000    -3.074000000
C    -2.766000000     3.212000000    -2.562000000
C    -1.880000000     4.199000000    -3.275000000
H    -2.079000000     5.233000000    -2.987000000
H    -2.059000000     4.119000000    -4.350000000
C    -0.425000000     3.978000000    -2.987000000
C     0.055000000     4.765000000    -1.917000000
H    -0.546000000     5.408000000    -1.279000000
C     0.359000000     3.046000000    -3.625000000
C     1.736000000     3.083000000    -3.302000000
H     2.388000000     2.403000000    -3.844000000
C     2.220000000     3.847000000    -2.202000000
O     3.443000000     3.589000000    -1.725000000
C     3.525000000     2.820000000    -0.517000000
C     4.416000000     1.520000000    -0.623000000
C     4.231000000     0.457000000    -1.524000000
H     3.453000000     0.668000000    -2.254000000
C     5.328000000     1.337000000     0.401000000
H     5.538000000     2.184000000     1.050000000
O     3.902000000     3.684000000     0.580000000
H     2.545000000     2.428000000    -0.207000000
C     1.404000000     4.752000000    -1.553000000
C     1.878000000     5.572000000    -0.383000000
H     1.325000000     6.506000000    -0.264000000
H     2.896000000     5.943000000    -0.519000000
C     1.808000000     4.659000000     0.801000000
C     2.812000000     3.862000000     1.335000000
C     2.694000000     3.169000000     2.550000000
H     3.413000000     2.433000000     2.900000000
C     1.503000000     3.293000000     3.298000000
O     1.308000000     2.319000000     4.293000000
C     0.564000000     1.146000000     3.940000000
H     0.431000000     1.212000000     2.850000000
C     1.226000000    -0.157000000     4.279000000
C     0.482000000    -1.333000000     4.099000000
H    -0.472000000    -1.333000000     3.578000000
C     2.513000000    -0.182000000     4.809000000
H     3.123000000     0.713000000     4.903000000
C     3.129000000    -1.418000000     5.072000000
O     4.428000000    -1.495000000     5.475000000
C     2.375000000    -2.581000000     4.884000000
H     2.860000000    -3.510000000     5.174000000
C     1.067000000    -2.600000000     4.409000000
O     0.392000000    -3.779000000     4.182000000
C    -0.953000000    -4.019000000     4.502000000
C    -1.847000000    -4.386000000     3.500000000
H    -1.413000000    -4.447000000     2.505000000
C    -1.352000000    -3.980000000     5.820000000
H    -0.583000000    -3.707000000     6.537000000
C    -2.675000000    -4.135000000     6.140000000
H    -2.924000000    -4.126000000     7.198000000
C    -3.561000000    -4.682000000     5.184000000
H    -4.556000000    -4.938000000     5.541000000
C    -3.200000000    -4.694000000     3.838000000
O    -4.047000000    -5.027000000     2.842000000
C    -4.200000000    -4.222000000     1.717000000
C    -4.375000000    -4.904000000     0.519000000
H    -4.482000000    -5.986000000     0.523000000
C    -4.398000000    -4.151000000    -0.709000000
O    -4.677000000    -4.866000000    -1.885000000
C    -4.915000000    -4.202000000    -3.030000000
C    -3.904000000    -3.922000000    -3.960000000
H    -2.894000000    -4.170000000    -3.645000000
C    -6.258000000    -3.910000000    -3.383000000
H    -7.017000000    -4.150000000    -2.642000000
C    -6.536000000    -3.397000000    -4.657000000
H    -7.584000000    -3.257000000    -4.908000000
C    -5.463000000    -3.073000000    -5.543000000
H    -5.662000000    -2.598000000    -6.500000000
C    -4.146000000    -3.267000000    -5.153000000
O    -3.153000000    -2.905000000    -5.993000000
C    -2.026000000    -2.258000000    -5.618000000
C    -0.782000000    -2.855000000    -5.835000000
H    -0.670000000    -3.903000000    -6.103000000
C     0.312000000    -2.110000000    -5.594000000
O     1.543000000    -2.743000000    -5.837000000
C     2.683000000    -2.235000000    -5.240000000
C     2.938000000    -2.265000000    -3.864000000
H     2.233000000    -2.584000000    -3.101000000
C     3.748000000    -1.885000000    -6.106000000
H     3.515000000    -2.053000000    -7.154000000
C     5.026000000    -1.454000000    -5.679000000
H     5.833000000    -1.284000000    -6.388000000
C     5.227000000    -1.444000000    -4.244000000
H     6.196000000    -1.132000000    -3.865000000
C     4.196000000    -1.800000000    -3.377000000
O     4.483000000    -1.835000000    -2.053000000
C     4.809000000    -0.718000000    -1.313000000
C     5.685000000    -0.931000000    -0.274000000
H     6.236000000    -1.865000000    -0.187000000
C     5.987000000     0.123000000     0.600000000
O     6.997000000    -0.038000000     1.557000000
C     6.723000000     0.056000000     2.954000000
C     7.534000000     0.847000000     3.771000000
H     8.365000000     1.415000000     3.361000000
C     7.185000000     0.877000000     5.124000000
H     7.791000000     1.406000000     5.854000000
C     6.192000000     0.024000000     5.664000000
H     6.073000000    -0.066000000     6.740000000
C     5.429000000    -0.725000000     4.830000000
C     5.680000000    -0.745000000     3.466000000
H     5.129000000    -1.396000000     2.792000000
C     1.755000000    -1.223000000     0.398000000
H     2.750000000    -1.431000000     0.782000000
C     1.128000000     0.021000000     0.498000000
H     1.628000000     0.805000000     1.061000000
C    -0.082000000     0.247000000    -0.126000000
H    -0.589000000     1.184000000     0.010000000
C    -0.617000000    -0.694000000    -0.937000000
H    -1.542000000    -0.550000000    -1.489000000
C     0.016000000    -1.922000000    -1.112000000
H    -0.416000000    -2.716000000    -1.717000000
C     1.211000000    -2.213000000    -0.387000000
C     1.828000000    -3.658000000    -0.542000000
O     1.157000000    -4.591000000    -0.927000000
O     2.830000000    -3.943000000     0.078000000
O     2.680000000    -6.658000000    -1.519000000
H     2.320000000    -7.364000000    -0.982000000
H     2.079000000    -5.924000000    -1.384000000
O     7.173000000    -3.326000000    -2.699000000
H     7.291000000    -3.592000000    -3.611000000
H     6.312000000    -3.668000000    -2.459000000
O     3.358000000    -8.487000000     1.559000000
H     4.290000000    -8.579000000     1.363000000
H     3.200000000    -7.543000000     1.536000000
O     7.344000000    -4.359000000     0.158000000
H     6.637000000    -4.036000000     0.716000000
H     6.954000000    -4.415000000    -0.715000000
O     4.995000000    -4.983000000    -1.412000000
H     4.326000000    -5.528000000    -1.826000000
H     4.509000000    -4.429000000    -0.802000000
O     4.675000000    -5.427000000     3.861000000
H     4.558000000    -5.279000000     4.799000000
H     4.632000000    -6.378000000     3.761000000
O    -1.706000000    -5.979000000    -5.194000000
H    -1.343000000    -5.933000000    -4.310000000
H    -1.091000000    -6.529000000    -5.678000000
O     0.661000000    -9.585000000    -0.043000000
H    -0.179000000    -9.862000000     0.323000000
H     1.203000000    -9.391000000     0.722000000
O     1.893000000    -7.492000000    -4.053000000
H     1.858000000    -8.429000000    -3.860000000
H     2.220000000    -7.093000000    -3.247000000
O     1.304000000    -9.380000000     3.021000000
H     1.995000000    -9.009000000     2.473000000
H     0.811000000    -8.621000000     3.332000000
O    -0.330000000    -6.012000000    -2.643000000
H     0.060000000    -5.388000000    -2.031000000
H     0.418000000    -6.470000000    -3.027000000
O     7.314000000    -7.072000000     0.749000000
H     6.807000000    -6.481000000     0.192000000
H     8.181000000    -7.096000000     0.345000000
O     5.133000000    -5.699000000    -4.292000000
H     4.393000000    -5.120000000    -4.474000000
H     5.360000000    -5.517000000    -3.380000000
O     1.283000000    -6.529000000     4.571000000
H     1.603000000    -6.124000000     3.765000000
H     0.624000000    -5.917000000     4.901000000
O    -2.009000000    -7.932000000    -1.416000000
H    -1.484000000    -7.338000000    -1.951000000
H    -2.915000000    -7.707000000    -1.626000000
O     1.826000000    -5.643000000     1.669000000
H     0.903000000    -5.827000000     1.491000000
H     2.013000000    -4.851000000     1.167000000
O     5.083000000    -4.043000000     1.639000000
H     4.289000000    -3.860000000     1.138000000
H     4.772000000    -4.489000000     2.427000000
O    -1.756000000    -7.418000000     2.736000000
H    -2.624000000    -7.048000000     2.895000000
H    -1.297000000    -6.746000000     2.232000000
O    -0.950000000    -5.890000000     0.568000000
H    -0.385000000    -5.409000000    -0.037000000
H    -1.307000000    -6.607000000     0.044000000
