215
-1465.87241
C    -4.498000000    -2.145000000    -1.030000000
H    -4.474000000    -1.423000000    -1.841000000
C    -4.437000000    -1.669000000     0.300000000
C    -4.498000000    -2.581000000     1.335000000
H    -4.366000000    -2.212000000     2.349000000
C    -4.147000000    -0.161000000     0.681000000
O    -4.887000000     0.623000000    -0.226000000
H    -3.089000000    -0.024000000     0.414000000
O    -4.572000000     0.305000000     2.025000000
C    -3.548000000     0.961000000     2.679000000
C    -2.601000000     0.230000000     3.511000000
H    -2.578000000    -0.851000000     3.628000000
C    -1.558000000     0.984000000     4.079000000
O    -0.609000000     0.309000000     4.757000000
C    -1.576000000     2.392000000     3.874000000
C    -0.517000000     3.182000000     4.538000000
H    -0.886000000     4.184000000     4.768000000
C     0.749000000     3.153000000     3.617000000
C     0.893000000     4.197000000     2.668000000
H     0.094000000     4.934000000     2.640000000
H    -0.125000000     2.793000000     5.480000000
C    -2.505000000     3.001000000     3.063000000
H    -2.459000000     4.079000000     2.934000000
C    -3.454000000     2.297000000     2.381000000
C    -4.384000000     3.123000000     1.439000000
H    -4.377000000     4.204000000     1.589000000
H    -5.418000000     2.822000000     1.618000000
C    -3.915000000     2.947000000    -0.038000000
C    -3.122000000     3.930000000    -0.613000000
H    -2.868000000     4.823000000    -0.047000000
C    -4.219000000     1.735000000    -0.745000000
C    -3.761000000     1.549000000    -2.006000000
H    -4.114000000     0.700000000    -2.584000000
C    -2.906000000     2.534000000    -2.552000000
O    -2.325000000     2.192000000    -3.755000000
C    -0.956000000     1.811000000    -3.747000000
C    -0.796000000     0.761000000    -4.820000000
C     0.496000000     0.479000000    -5.307000000
H     1.288000000     1.153000000    -4.991000000
C    -1.841000000    -0.118000000    -5.149000000
H    -2.789000000     0.218000000    -4.738000000
O    -0.115000000     2.948000000    -4.035000000
H    -0.788000000     1.374000000    -2.751000000
C    -2.617000000     3.707000000    -1.887000000
C    -1.739000000     4.697000000    -2.588000000
H    -2.129000000     5.665000000    -2.268000000
H    -1.786000000     4.684000000    -3.679000000
C    -0.312000000     4.410000000    -2.211000000
C     0.252000000     4.939000000    -1.039000000
H    -0.295000000     5.641000000    -0.415000000
C     0.480000000     3.588000000    -2.970000000
C     1.711000000     3.072000000    -2.553000000
H     2.198000000     2.426000000    -3.279000000
C     2.266000000     3.645000000    -1.385000000
O     3.607000000     3.301000000    -1.122000000
C     3.744000000     2.475000000     0.043000000
C     4.689000000     1.341000000    -0.237000000
C     4.383000000     0.514000000    -1.317000000
H     3.604000000     0.890000000    -1.975000000
C     5.721000000     1.044000000     0.659000000
H     5.931000000     1.665000000     1.526000000
O     4.091000000     3.249000000     1.202000000
H     2.727000000     2.061000000     0.118000000
C     1.555000000     4.620000000    -0.676000000
C     2.047000000     5.202000000     0.688000000
H     1.408000000     6.061000000     0.904000000
H     3.003000000     5.692000000     0.492000000
C     2.003000000     4.229000000     1.822000000
C     3.042000000     3.321000000     2.120000000
C     2.885000000     2.261000000     3.017000000
H     3.574000000     1.420000000     3.008000000
C     1.767000000     2.195000000     3.763000000
O     1.514000000     1.023000000     4.484000000
C     0.544000000     0.116000000     4.032000000
H     0.250000000     0.213000000     2.976000000
C     1.058000000    -1.342000000     4.143000000
C     0.116000000    -2.373000000     4.186000000
H    -0.922000000    -2.111000000     4.375000000
C     2.425000000    -1.669000000     4.025000000
H     3.181000000    -0.890000000     4.069000000
C     2.791000000    -3.009000000     3.879000000
O     4.062000000    -3.493000000     3.849000000
C     1.842000000    -3.960000000     3.870000000
H     2.206000000    -4.978000000     3.751000000
C     0.483000000    -3.687000000     3.977000000
O    -0.364000000    -4.838000000     3.860000000
C    -1.731000000    -4.709000000     4.023000000
C    -2.566000000    -4.865000000     2.935000000
H    -2.195000000    -5.037000000     1.927000000
C    -2.306000000    -4.466000000     5.326000000
H    -1.826000000    -4.335000000     6.293000000
C    -3.759000000    -4.420000000     5.460000000
H    -4.174000000    -4.031000000     6.386000000
C    -4.555000000    -4.582000000     4.334000000
H    -5.627000000    -4.413000000     4.384000000
C    -3.967000000    -4.746000000     3.078000000
O    -4.839000000    -4.775000000     2.117000000
C    -4.725000000    -3.937000000     1.068000000
C    -5.057000000    -4.394000000    -0.218000000
H    -5.342000000    -5.434000000    -0.356000000
C    -4.870000000    -3.508000000    -1.288000000
O    -5.018000000    -3.999000000    -2.524000000
C    -5.043000000    -3.148000000    -3.592000000
C    -3.897000000    -2.879000000    -4.315000000
H    -2.954000000    -3.350000000    -4.047000000
C    -6.271000000    -2.741000000    -4.131000000
H    -7.209000000    -3.044000000    -3.672000000
C    -6.261000000    -2.012000000    -5.303000000
H    -7.164000000    -1.539000000    -5.680000000
C    -5.089000000    -1.728000000    -5.969000000
H    -5.208000000    -1.051000000    -6.811000000
C    -3.874000000    -2.164000000    -5.524000000
O    -2.752000000    -1.997000000    -6.339000000
C    -1.624000000    -1.223000000    -5.973000000
C    -0.299000000    -1.592000000    -6.336000000
H    -0.181000000    -2.574000000    -6.787000000
C     0.730000000    -0.712000000    -5.978000000
O     2.035000000    -0.928000000    -6.336000000
C     3.136000000    -0.493000000    -5.706000000
C     3.482000000    -1.020000000    -4.479000000
H     2.704000000    -1.578000000    -3.966000000
C     4.081000000     0.199000000    -6.450000000
H     3.798000000     0.549000000    -7.439000000
C     5.382000000     0.427000000    -5.937000000
H     6.185000000     0.848000000    -6.537000000
C     5.609000000     0.013000000    -4.605000000
H     6.509000000     0.312000000    -4.074000000
C     4.719000000    -0.752000000    -3.928000000
O     4.986000000    -1.379000000    -2.695000000
C     5.103000000    -0.678000000    -1.528000000
C     6.010000000    -1.106000000    -0.574000000
H     6.517000000    -2.067000000    -0.607000000
C     6.336000000    -0.233000000     0.447000000
O     7.182000000    -0.776000000     1.400000000
C     6.727000000    -1.355000000     2.618000000
C     7.644000000    -1.401000000     3.671000000
H     8.637000000    -0.996000000     3.494000000
C     7.256000000    -2.006000000     4.889000000
H     7.904000000    -2.014000000     5.762000000
C     5.987000000    -2.681000000     5.040000000
H     5.759000000    -3.279000000     5.919000000
C     5.182000000    -2.699000000     3.903000000
C     5.503000000    -2.030000000     2.695000000
H     4.856000000    -2.190000000     1.836000000
C     1.487000000    -0.608000000     0.729000000
H     2.337000000    -0.598000000     1.406000000
C     0.642000000     0.427000000     0.601000000
H     0.889000000     1.372000000     1.079000000
C    -0.541000000     0.341000000    -0.091000000
H    -1.227000000     1.194000000    -0.140000000
C    -0.903000000    -0.813000000    -0.738000000
H    -1.855000000    -0.905000000    -1.254000000
C     0.012000000    -1.894000000    -0.671000000
H    -0.194000000    -2.817000000    -1.207000000
C     1.100000000    -1.805000000     0.067000000
C     2.031000000    -3.053000000     0.145000000
O     1.524000000    -4.161000000    -0.021000000
O     3.212000000    -2.979000000     0.401000000
O     4.315000000    -4.048000000    -2.288000000
H     4.029000000    -4.136000000    -1.379000000
H     4.441000000    -3.107000000    -2.410000000
O     7.610000000    -5.125000000     0.534000000
H     7.983000000    -5.360000000     1.384000000
H     6.664000000    -5.114000000     0.683000000
O     5.565000000    -4.694000000    -5.338000000
H     5.186000000    -4.466000000    -4.489000000
H     5.035000000    -5.428000000    -5.648000000
O     5.351000000    -8.271000000     1.686000000
H     5.201000000    -7.512000000     2.251000000
H     6.300000000    -8.292000000     1.561000000
O     2.773000000    -7.403000000    -2.561000000
H     3.065000000    -7.077000000    -1.709000000
H     2.487000000    -6.620000000    -3.031000000
O    -0.080000000    -6.609000000    -3.735000000
H     0.583000000    -6.265000000    -3.137000000
H    -0.895000000    -6.192000000    -3.455000000
O     6.358000000    -7.533000000    -1.257000000
H     6.638000000    -8.447000000    -1.212000000
H     5.833000000    -7.404000000    -0.467000000
O    -0.298000000    -8.485000000     4.345000000
H     0.287000000    -7.735000000     4.240000000
H    -0.746000000    -8.560000000     3.503000000
O    -1.510000000    -8.916000000     1.468000000
H    -1.251000000    -9.835000000     1.403000000
H    -1.087000000    -8.494000000     0.720000000
O     5.055000000    -8.518000000    -3.806000000
H     4.426000000    -8.158000000    -3.181000000
H     5.651000000    -9.042000000    -3.272000000
O     3.261000000    -6.482000000    -0.166000000
H     4.013000000    -6.047000000     0.236000000
H     2.503000000    -5.987000000     0.147000000
O     1.828000000    -4.890000000    -2.613000000
H     2.662000000    -4.426000000    -2.683000000
H     1.641000000    -4.905000000    -1.674000000
O    -2.579000000    -5.840000000    -2.928000000
H    -3.397000000    -6.087000000    -3.362000000
H    -2.753000000    -5.973000000    -1.996000000
O     3.689000000    -6.638000000     5.311000000
H     4.395000000    -7.188000000     5.650000000
H     3.265000000    -7.176000000     4.643000000
O     2.416000000    -8.189000000     3.119000000
H     2.068000000    -7.808000000     2.313000000
H     2.963000000    -8.917000000     2.823000000
O     7.432000000    -4.657000000    -2.243000000
H     6.498000000    -4.722000000    -2.441000000
H     7.499000000    -4.895000000    -1.319000000
O     0.479000000    -6.217000000     1.204000000
H     0.170000000    -5.989000000     2.081000000
H     0.805000000    -5.393000000     0.843000000
O     4.925000000    -4.872000000     1.444000000
H     4.992000000    -4.602000000     2.360000000
H     4.284000000    -4.271000000     1.064000000
O     0.212000000    -7.993000000    -0.845000000
H     0.205000000    -7.233000000    -0.262000000
H     0.992000000    -7.872000000    -1.386000000
