215
-1478.34334
C    -3.329000000    -3.468000000    -0.034000000
H    -3.584000000    -3.193000000    -1.054000000
C    -3.500000000    -2.620000000     1.036000000
C    -3.087000000    -3.006000000     2.287000000
H    -3.255000000    -2.346000000     3.134000000
C    -3.899000000    -1.183000000     0.841000000
O    -4.792000000    -1.092000000    -0.302000000
H    -2.936000000    -0.725000000     0.571000000
O    -4.413000000    -0.528000000     2.002000000
C    -3.927000000     0.746000000     2.143000000
C    -3.006000000     0.878000000     3.215000000
H    -2.769000000    -0.001000000     3.808000000
C    -2.330000000     2.030000000     3.351000000
O    -1.424000000     2.071000000     4.451000000
C    -2.703000000     3.179000000     2.602000000
C    -1.908000000     4.515000000     2.842000000
H    -2.581000000     5.315000000     2.527000000
C    -0.552000000     4.425000000     2.146000000
C    -0.489000000     4.785000000     0.799000000
H    -1.347000000     5.254000000     0.324000000
H    -1.767000000     4.656000000     3.916000000
C    -3.694000000     3.101000000     1.603000000
H    -3.852000000     3.950000000     0.944000000
C    -4.284000000     1.839000000     1.376000000
C    -5.337000000     1.643000000     0.218000000
H    -5.784000000     2.602000000    -0.054000000
H    -6.092000000     0.967000000     0.625000000
C    -4.629000000     1.191000000    -1.020000000
C    -4.084000000     2.092000000    -1.976000000
H    -4.251000000     3.164000000    -1.905000000
C    -4.526000000    -0.179000000    -1.283000000
C    -3.775000000    -0.622000000    -2.431000000
H    -3.734000000    -1.697000000    -2.587000000
C    -3.251000000     0.275000000    -3.372000000
O    -2.547000000    -0.252000000    -4.457000000
C    -1.133000000    -0.193000000    -4.463000000
C    -0.562000000    -1.439000000    -5.078000000
C     0.771000000    -1.377000000    -5.628000000
H     1.329000000    -0.445000000    -5.590000000
C    -1.228000000    -2.615000000    -5.130000000
H    -2.283000000    -2.550000000    -4.877000000
O    -0.630000000     1.001000000    -5.081000000
H    -0.847000000    -0.177000000    -3.401000000
C    -3.428000000     1.683000000    -3.117000000
C    -2.787000000     2.721000000    -3.984000000
H    -3.173000000     3.737000000    -3.879000000
H    -2.868000000     2.491000000    -5.049000000
C    -1.357000000     2.828000000    -3.641000000
C    -0.916000000     3.866000000    -2.787000000
H    -1.683000000     4.546000000    -2.426000000
C    -0.352000000     2.011000000    -4.144000000
C     0.966000000     2.249000000    -3.855000000
H     1.776000000     1.651000000    -4.265000000
C     1.252000000     3.049000000    -2.797000000
O     2.534000000     3.073000000    -2.338000000
C     2.729000000     2.633000000    -0.971000000
C     3.891000000     1.688000000    -0.858000000
C     4.222000000     0.833000000    -1.920000000
H     3.667000000     0.821000000    -2.854000000
C     4.522000000     1.634000000     0.324000000
H     4.272000000     2.364000000     1.090000000
O     2.923000000     3.790000000    -0.059000000
H     1.889000000     2.010000000    -0.629000000
C     0.337000000     3.943000000    -2.253000000
C     0.734000000     5.150000000    -1.370000000
H     0.102000000     6.017000000    -1.575000000
H     1.754000000     5.459000000    -1.610000000
C     0.682000000     4.649000000     0.084000000
C     1.802000000     4.122000000     0.676000000
C     1.777000000     3.715000000     2.014000000
H     2.704000000     3.320000000     2.420000000
C     0.582000000     3.842000000     2.738000000
O     0.535000000     3.342000000     4.002000000
C    -0.033000000     1.978000000     4.079000000
H     0.101000000     1.546000000     3.076000000
C     0.788000000     1.161000000     5.079000000
C     0.139000000     0.009000000     5.613000000
H    -0.886000000    -0.206000000     5.324000000
C     2.167000000     1.358000000     5.296000000
H     2.689000000     2.208000000     4.865000000
C     2.902000000     0.441000000     5.975000000
O     4.238000000     0.581000000     6.077000000
C     2.193000000    -0.544000000     6.634000000
H     2.784000000    -1.288000000     7.161000000
C     0.856000000    -0.833000000     6.496000000
O     0.153000000    -1.825000000     7.157000000
C    -0.974000000    -2.518000000     6.639000000
C    -0.915000000    -3.118000000     5.422000000
H    -0.027000000    -3.031000000     4.802000000
C    -2.164000000    -2.488000000     7.336000000
H    -2.144000000    -2.108000000     8.354000000
C    -3.275000000    -3.117000000     6.828000000
H    -4.222000000    -3.099000000     7.362000000
C    -3.237000000    -3.738000000     5.599000000
H    -4.179000000    -4.183000000     5.290000000
C    -2.061000000    -3.773000000     4.884000000
O    -2.049000000    -4.676000000     3.772000000
C    -2.531000000    -4.292000000     2.516000000
C    -2.452000000    -5.195000000     1.421000000
H    -2.024000000    -6.185000000     1.553000000
C    -2.854000000    -4.800000000     0.176000000
O    -2.590000000    -5.721000000    -0.872000000
C    -2.866000000    -5.447000000    -2.178000000
C    -1.815000000    -5.408000000    -3.064000000
H    -0.758000000    -5.347000000    -2.817000000
C    -4.223000000    -5.357000000    -2.539000000
H    -4.945000000    -5.520000000    -1.743000000
C    -4.512000000    -5.192000000    -3.912000000
H    -5.521000000    -5.077000000    -4.300000000
C    -3.453000000    -5.130000000    -4.839000000
H    -3.615000000    -4.965000000    -5.902000000
C    -2.136000000    -5.289000000    -4.437000000
O    -1.178000000    -5.075000000    -5.388000000
C    -0.597000000    -3.793000000    -5.494000000
C     0.702000000    -3.742000000    -6.022000000
H     1.019000000    -4.694000000    -6.440000000
C     1.399000000    -2.504000000    -6.038000000
O     2.724000000    -2.532000000    -6.477000000
C     3.692000000    -1.753000000    -5.901000000
C     3.842000000    -1.683000000    -4.477000000
H     3.132000000    -2.220000000    -3.853000000
C     4.463000000    -0.952000000    -6.769000000
H     4.408000000    -1.068000000    -7.848000000
C     5.544000000    -0.221000000    -6.211000000
H     6.257000000     0.236000000    -6.892000000
C     5.777000000    -0.218000000    -4.840000000
H     6.574000000     0.421000000    -4.466000000
C     4.938000000    -1.005000000    -4.010000000
O     5.335000000    -1.126000000    -2.657000000
C     5.175000000    -0.140000000    -1.738000000
C     5.762000000    -0.323000000    -0.490000000
H     6.350000000    -1.193000000    -0.210000000
C     5.436000000     0.580000000     0.499000000
O     6.255000000     0.572000000     1.627000000
C     5.975000000     1.126000000     2.852000000
C     6.621000000     2.361000000     3.192000000
H     7.245000000     2.869000000     2.462000000
C     6.421000000     2.962000000     4.456000000
H     6.943000000     3.891000000     4.668000000
C     5.717000000     2.306000000     5.426000000
H     5.486000000     2.748000000     6.392000000
C     5.035000000     1.118000000     5.060000000
C     5.213000000     0.503000000     3.836000000
H     4.682000000    -0.411000000     3.584000000
C     1.855000000    -1.265000000     1.629000000
H     2.682000000    -1.492000000     2.297000000
C     1.327000000     0.033000000     1.556000000
H     1.872000000     0.806000000     2.092000000
C     0.287000000     0.287000000     0.711000000
H     0.056000000     1.357000000     0.555000000
C    -0.351000000    -0.781000000     0.038000000
H    -1.102000000    -0.615000000    -0.731000000
C     0.130000000    -2.040000000     0.111000000
H    -0.320000000    -2.859000000    -0.445000000
C     1.213000000    -2.346000000     1.004000000
C     1.802000000    -3.731000000     0.978000000
O     1.133000000    -4.681000000     1.049000000
O     3.070000000    -3.774000000     0.802000000
O     3.934000000    -6.334000000     1.349000000
H     3.455000000    -6.551000000     2.149000000
H     3.656000000    -5.443000000     1.138000000
O     4.714000000    -6.025000000     5.889000000
H     5.239000000    -6.292000000     5.135000000
H     3.960000000    -5.575000000     5.508000000
O     6.877000000    -3.086000000     1.545000000
H     5.982000000    -3.016000000     1.876000000
H     7.356000000    -2.395000000     2.002000000
O     4.397000000    -3.616000000    -1.506000000
H     4.708000000    -2.732000000    -1.311000000
H     3.748000000    -3.798000000    -0.826000000
O     6.011000000    -5.936000000     3.240000000
H     6.954000000    -5.892000000     3.400000000
H     5.904000000    -6.680000000     2.646000000
O     0.375000000    -8.253000000    -3.932000000
H     1.009000000    -7.683000000    -3.496000000
H     0.786000000    -8.473000000    -4.768000000
O     2.405000000    -6.245000000    -3.165000000
H     2.058000000    -5.359000000    -3.062000000
H     3.131000000    -6.292000000    -2.543000000
O     4.328000000    -8.011000000    -1.512000000
H     5.261000000    -7.891000000    -1.337000000
H     3.889000000    -7.564000000    -0.788000000
O    -0.085000000    -6.543000000     5.564000000
H     0.260000000    -5.972000000     4.877000000
H     0.610000000    -7.185000000     5.713000000
O     5.938000000    -4.470000000    -3.574000000
H     6.836000000    -4.346000000    -3.267000000
H     5.394000000    -4.245000000    -2.820000000
O     2.017000000   -10.660000000     2.421000000
H     2.792000000   -10.625000000     2.982000000
H     2.132000000    -9.933000000     1.808000000
O     1.768000000    -8.911000000     0.400000000
H     1.340000000    -8.057000000     0.337000000
H     1.901000000    -9.180000000    -0.509000000
O     3.089000000    -4.393000000     4.963000000
H     3.657000000    -4.014000000     4.291000000
H     2.273000000    -4.589000000     4.503000000
O     6.232000000    -7.605000000     0.921000000
H     5.974000000    -8.527000000     0.928000000
H     5.404000000    -7.124000000     0.931000000
O     4.449000000    -3.322000000     2.944000000
H     4.053000000    -3.347000000     2.072000000
H     4.893000000    -4.166000000     3.030000000
O     7.999000000    -5.544000000     0.670000000
H     7.380000000    -6.272000000     0.729000000
H     7.504000000    -4.783000000     0.975000000
O     0.648000000    -5.049000000     3.444000000
H     0.947000000    -5.116000000     2.538000000
H    -0.278000000    -4.818000000     3.375000000
O     0.481000000    -6.788000000    -0.202000000
H     0.515000000    -6.010000000     0.354000000
H    -0.374000000    -6.739000000    -0.631000000
O     4.643000000    -6.564000000    -4.639000000
H     3.793000000    -6.614000000    -4.202000000
H     5.074000000    -5.810000000    -4.237000000
