215
-1450.78009
C    -3.999000000    -3.265000000    -0.158000000
H    -4.081000000    -2.940000000    -1.192000000
C    -4.000000000    -2.267000000     0.848000000
C    -3.650000000    -2.682000000     2.105000000
H    -3.795000000    -1.977000000     2.920000000
C    -4.196000000    -0.822000000     0.531000000
O    -5.184000000    -0.611000000    -0.585000000
H    -3.227000000    -0.366000000     0.283000000
O    -4.612000000    -0.153000000     1.705000000
C    -4.005000000     1.025000000     2.083000000
C    -3.057000000     1.027000000     3.130000000
H    -2.969000000     0.140000000     3.751000000
C    -2.238000000     2.144000000     3.314000000
O    -1.371000000     1.952000000     4.343000000
C    -2.422000000     3.323000000     2.625000000
C    -1.584000000     4.482000000     2.977000000
H    -1.934000000     5.471000000     2.672000000
C    -0.231000000     4.324000000     2.225000000
C    -0.204000000     4.828000000     0.928000000
H    -1.098000000     5.313000000     0.544000000
H    -1.332000000     4.596000000     4.033000000
C    -3.440000000     3.357000000     1.600000000
H    -3.512000000     4.283000000     1.035000000
C    -4.226000000     2.226000000     1.279000000
C    -5.166000000     2.285000000     0.054000000
H    -5.388000000     3.343000000    -0.097000000
H    -6.142000000     1.884000000     0.336000000
C    -4.631000000     1.632000000    -1.217000000
C    -3.916000000     2.457000000    -2.092000000
H    -3.923000000     3.525000000    -1.892000000
C    -4.676000000     0.303000000    -1.543000000
C    -4.013000000    -0.276000000    -2.621000000
H    -4.077000000    -1.357000000    -2.714000000
C    -3.191000000     0.561000000    -3.400000000
O    -2.435000000    -0.075000000    -4.357000000
C    -0.967000000    -0.035000000    -4.248000000
C    -0.342000000    -1.391000000    -4.618000000
C     0.987000000    -1.321000000    -5.093000000
H     1.524000000    -0.376000000    -5.093000000
C    -0.985000000    -2.588000000    -4.486000000
H    -1.991000000    -2.639000000    -4.077000000
O    -0.356000000     1.082000000    -4.995000000
H    -0.703000000     0.138000000    -3.194000000
C    -3.144000000     1.967000000    -3.168000000
C    -2.435000000     2.919000000    -4.147000000
H    -2.987000000     3.852000000    -4.279000000
H    -2.530000000     2.499000000    -5.150000000
C    -0.989000000     3.061000000    -3.652000000
C    -0.638000000     3.999000000    -2.701000000
H    -1.331000000     4.762000000    -2.357000000
C    -0.046000000     2.181000000    -4.150000000
C     1.276000000     2.310000000    -3.756000000
H     1.959000000     1.513000000    -4.040000000
C     1.661000000     3.249000000    -2.805000000
O     2.920000000     3.190000000    -2.281000000
C     3.029000000     2.719000000    -0.889000000
C     4.196000000     1.681000000    -0.839000000
C     4.527000000     0.848000000    -1.952000000
H     3.931000000     0.694000000    -2.848000000
C     4.983000000     1.578000000     0.335000000
H     4.774000000     2.228000000     1.181000000
O     3.197000000     3.764000000     0.016000000
H     2.119000000     2.138000000    -0.682000000
C     0.735000000     4.137000000    -2.304000000
C     1.018000000     5.203000000    -1.253000000
H     0.388000000     6.094000000    -1.306000000
H     1.998000000     5.650000000    -1.430000000
C     0.962000000     4.708000000     0.252000000
C     2.082000000     4.046000000     0.816000000
C     2.066000000     3.610000000     2.082000000
H     2.879000000     3.008000000     2.480000000
C     0.908000000     3.770000000     2.858000000
O     0.768000000     3.040000000     4.012000000
C     0.051000000     1.770000000     4.015000000
H     0.064000000     1.416000000     2.974000000
C     0.706000000     0.695000000     4.897000000
C    -0.041000000    -0.391000000     5.379000000
H    -1.124000000    -0.450000000     5.299000000
C     2.095000000     0.519000000     4.788000000
H     2.626000000     1.285000000     4.229000000
C     2.719000000    -0.528000000     5.381000000
O     4.065000000    -0.730000000     5.430000000
C     2.013000000    -1.351000000     6.255000000
H     2.497000000    -2.182000000     6.762000000
C     0.609000000    -1.358000000     6.168000000
O     0.021000000    -2.462000000     6.744000000
C    -1.272000000    -2.805000000     6.541000000
C    -1.511000000    -3.374000000     5.328000000
H    -0.720000000    -3.818000000     4.729000000
C    -2.326000000    -2.483000000     7.362000000
H    -2.111000000    -2.232000000     8.397000000
C    -3.638000000    -2.658000000     6.962000000
H    -4.454000000    -2.541000000     7.671000000
C    -3.844000000    -3.152000000     5.692000000
H    -4.869000000    -3.357000000     5.393000000
C    -2.816000000    -3.590000000     4.882000000
O    -3.106000000    -4.339000000     3.713000000
C    -3.362000000    -3.990000000     2.474000000
C    -3.443000000    -4.994000000     1.478000000
H    -3.147000000    -6.022000000     1.667000000
C    -3.729000000    -4.620000000     0.156000000
O    -3.830000000    -5.495000000    -0.845000000
C    -3.659000000    -5.340000000    -2.185000000
C    -2.478000000    -4.950000000    -2.747000000
H    -1.634000000    -4.670000000    -2.122000000
C    -4.759000000    -5.644000000    -2.961000000
H    -5.660000000    -6.029000000    -2.490000000
C    -4.669000000    -5.711000000    -4.334000000
H    -5.467000000    -6.064000000    -4.983000000
C    -3.450000000    -5.485000000    -4.910000000
H    -3.330000000    -5.696000000    -5.970000000
C    -2.308000000    -5.137000000    -4.136000000
O    -1.040000000    -5.000000000    -4.697000000
C    -0.372000000    -3.824000000    -4.825000000
C     0.925000000    -3.788000000    -5.302000000
H     1.455000000    -4.711000000    -5.521000000
C     1.593000000    -2.570000000    -5.477000000
O     2.921000000    -2.579000000    -5.998000000
C     3.925000000    -1.632000000    -5.703000000
C     4.544000000    -1.698000000    -4.463000000
H     4.353000000    -2.497000000    -3.751000000
C     4.226000000    -0.607000000    -6.559000000
H     3.680000000    -0.515000000    -7.494000000
C     5.158000000     0.382000000    -6.259000000
H     5.266000000     1.120000000    -7.049000000
C     5.791000000     0.344000000    -5.030000000
H     6.496000000     1.082000000    -4.655000000
C     5.462000000    -0.736000000    -4.156000000
O     6.020000000    -0.898000000    -2.919000000
C     5.664000000     0.004000000    -1.869000000
C     6.412000000    -0.153000000    -0.730000000
H     7.318000000    -0.753000000    -0.741000000
C     6.026000000     0.620000000     0.423000000
O     6.672000000     0.496000000     1.608000000
C     6.172000000     0.711000000     2.857000000
C     6.725000000     1.804000000     3.516000000
H     7.419000000     2.434000000     2.965000000
C     6.369000000     2.003000000     4.834000000
H     6.800000000     2.848000000     5.364000000
C     5.581000000     1.016000000     5.439000000
H     5.311000000     1.132000000     6.485000000
C     4.904000000     0.078000000     4.698000000
C     5.190000000    -0.108000000     3.386000000
H     4.842000000    -0.998000000     2.868000000
C     2.057000000    -1.185000000     0.561000000
H     2.967000000    -1.193000000     1.155000000
C     1.283000000    -0.061000000     0.859000000
H     1.707000000     0.731000000     1.472000000
C     0.071000000     0.096000000     0.237000000
H    -0.594000000     0.909000000     0.454000000
C    -0.386000000    -0.918000000    -0.663000000
H    -1.393000000    -0.988000000    -1.067000000
C     0.364000000    -2.079000000    -0.837000000
H     0.036000000    -2.920000000    -1.443000000
C     1.657000000    -2.236000000    -0.266000000
C     2.619000000    -3.431000000    -0.417000000
O     2.077000000    -4.507000000    -0.587000000
O     3.832000000    -3.289000000    -0.362000000
O     4.216000000    -5.854000000     0.450000000
H     5.124000000    -5.757000000     0.165000000
H     3.797000000    -5.030000000     0.202000000
O     0.805000000    -6.088000000     4.853000000
H     1.600000000    -5.694000000     4.494000000
H     0.748000000    -6.943000000     4.426000000
O     7.945000000    -2.581000000     2.713000000
H     7.035000000    -2.461000000     2.439000000
H     8.079000000    -1.920000000     3.392000000
O     4.651000000    -4.702000000    -2.442000000
H     4.052000000    -5.430000000    -2.278000000
H     4.371000000    -4.019000000    -1.832000000
O    -1.502000000    -7.925000000    -0.198000000
H    -1.098000000    -7.109000000     0.096000000
H    -1.498000000    -7.864000000    -1.153000000
O     7.763000000    -5.096000000     3.646000000
H     7.712000000    -4.221000000     3.261000000
H     8.686000000    -5.339000000     3.566000000
O     1.752000000    -8.719000000     3.542000000
H     1.848000000    -9.544000000     3.066000000
H     2.401000000    -8.137000000     3.145000000
O     2.445000000    -6.784000000    -2.137000000
H     2.394000000    -5.974000000    -1.630000000
H     2.852000000    -7.413000000    -1.541000000
O     2.766000000    -7.888000000     1.227000000
H     1.904000000    -7.776000000     0.826000000
H     3.269000000    -7.130000000     0.928000000
O     5.845000000    -7.957000000    -3.435000000
H     6.698000000    -8.272000000    -3.135000000
H     5.280000000    -8.025000000    -2.665000000
O     4.477000000    -8.802000000    -0.931000000
H     5.193000000    -9.437000000    -0.903000000
H     4.018000000    -8.921000000    -0.099000000
O     4.980000000    -4.445000000     4.093000000
H     5.028000000    -4.186000000     5.013000000
H     5.872000000    -4.715000000     3.873000000
O     7.820000000    -4.571000000    -0.045000000
H     7.187000000    -4.082000000     0.481000000
H     8.525000000    -4.785000000     0.566000000
O     5.705000000    -3.373000000     1.403000000
H     5.115000000    -4.001000000     1.820000000
H     5.259000000    -3.126000000     0.593000000
O     7.376000000    -4.898000000    -2.932000000
H     6.473000000    -4.620000000    -2.775000000
H     7.702000000    -5.151000000    -2.069000000
O     2.549000000    -5.098000000     3.132000000
H     2.854000000    -5.238000000     2.235000000
H     3.344000000    -4.896000000     3.625000000
O     0.049000000    -6.800000000    -2.890000000
H     0.982000000    -6.719000000    -2.696000000
H    -0.162000000    -6.009000000    -3.386000000
O     0.050000000    -5.727000000     0.461000000
H     0.858000000    -5.436000000     0.039000000
H    -0.018000000    -5.186000000     1.248000000
O     2.347000000    -7.925000000    -4.813000000
H     2.532000000    -7.754000000    -3.889000000
H     2.247000000    -8.876000000    -4.865000000
