215
-1437.75130
C    -4.898000000    -2.811000000     0.574000000
H    -5.249000000    -2.476000000    -0.398000000
C    -4.197000000    -1.968000000     1.405000000
C    -3.412000000    -2.441000000     2.470000000
H    -2.705000000    -1.848000000     3.045000000
C    -4.176000000    -0.452000000     1.073000000
O    -5.062000000    -0.128000000     0.038000000
H    -3.130000000    -0.243000000     0.803000000
O    -4.441000000     0.272000000     2.284000000
C    -3.825000000     1.429000000     2.600000000
C    -2.734000000     1.286000000     3.400000000
H    -2.619000000     0.278000000     3.792000000
C    -1.754000000     2.259000000     3.529000000
O    -0.709000000     2.072000000     4.419000000
C    -1.870000000     3.437000000     2.776000000
C    -0.808000000     4.557000000     2.908000000
H    -1.205000000     5.509000000     2.548000000
C     0.379000000     4.305000000     2.054000000
C     0.362000000     4.717000000     0.692000000
H    -0.443000000     5.240000000     0.182000000
H    -0.516000000     4.527000000     3.959000000
C    -3.002000000     3.645000000     1.967000000
H    -3.193000000     4.565000000     1.420000000
C    -3.898000000     2.536000000     1.786000000
C    -4.900000000     2.729000000     0.678000000
H    -5.194000000     3.767000000     0.508000000
H    -5.783000000     2.231000000     1.084000000
C    -4.439000000     2.124000000    -0.611000000
C    -3.782000000     2.915000000    -1.574000000
H    -3.480000000     3.948000000    -1.425000000
C    -4.603000000     0.776000000    -0.876000000
C    -4.129000000     0.247000000    -2.083000000
H    -4.197000000    -0.827000000    -2.235000000
C    -3.458000000     1.003000000    -3.004000000
O    -2.843000000     0.326000000    -4.039000000
C    -1.421000000     0.065000000    -4.045000000
C    -1.052000000    -1.357000000    -4.473000000
C     0.177000000    -1.547000000    -5.135000000
H     0.709000000    -0.685000000    -5.531000000
C    -1.689000000    -2.428000000    -3.817000000
H    -2.390000000    -2.174000000    -3.026000000
O    -0.646000000     1.069000000    -4.756000000
H    -1.265000000     0.218000000    -2.967000000
C    -3.258000000     2.382000000    -2.753000000
C    -2.454000000     3.219000000    -3.757000000
H    -2.712000000     4.276000000    -3.670000000
H    -2.619000000     2.929000000    -4.797000000
C    -1.007000000     3.022000000    -3.504000000
C    -0.420000000     3.961000000    -2.615000000
H    -1.085000000     4.669000000    -2.127000000
C    -0.209000000     2.129000000    -4.136000000
C     1.174000000     2.125000000    -3.967000000
H     1.760000000     1.347000000    -4.449000000
C     1.695000000     2.986000000    -3.022000000
O     3.009000000     2.797000000    -2.669000000
C     3.289000000     2.301000000    -1.299000000
C     4.348000000     1.240000000    -1.293000000
C     4.570000000     0.505000000    -2.440000000
H     4.273000000     0.918000000    -3.401000000
C     4.964000000     0.757000000    -0.110000000
H     4.792000000     1.209000000     0.863000000
O     3.633000000     3.462000000    -0.424000000
H     2.333000000     1.837000000    -1.017000000
C     0.937000000     4.006000000    -2.409000000
C     1.534000000     5.005000000    -1.470000000
H     0.946000000     5.922000000    -1.395000000
H     2.544000000     5.323000000    -1.736000000
C     1.499000000     4.488000000    -0.088000000
C     2.587000000     3.766000000     0.386000000
C     2.584000000     3.300000000     1.654000000
H     3.286000000     2.569000000     2.048000000
C     1.462000000     3.568000000     2.481000000
O     1.409000000     2.950000000     3.742000000
C     0.581000000     1.745000000     3.857000000
H     0.475000000     1.357000000     2.833000000
C     1.326000000     0.684000000     4.675000000
C     0.650000000    -0.409000000     5.176000000
H    -0.412000000    -0.493000000     4.963000000
C     2.727000000     0.776000000     4.856000000
H     3.220000000     1.686000000     4.522000000
C     3.420000000    -0.336000000     5.403000000
O     4.722000000    -0.361000000     5.461000000
C     2.718000000    -1.388000000     5.966000000
H     3.264000000    -2.185000000     6.465000000
C     1.334000000    -1.409000000     5.848000000
O     0.625000000    -2.428000000     6.447000000
C    -0.708000000    -2.636000000     6.199000000
C    -1.077000000    -3.395000000     5.037000000
H    -0.285000000    -3.711000000     4.364000000
C    -1.738000000    -2.035000000     6.907000000
H    -1.492000000    -1.365000000     7.726000000
C    -3.096000000    -2.268000000     6.616000000
H    -3.857000000    -1.861000000     7.276000000
C    -3.431000000    -3.165000000     5.616000000
H    -4.476000000    -3.408000000     5.444000000
C    -2.403000000    -3.759000000     4.849000000
O    -2.797000000    -4.475000000     3.789000000
C    -3.424000000    -3.846000000     2.744000000
C    -4.115000000    -4.700000000     1.870000000
H    -4.146000000    -5.781000000     1.986000000
C    -4.845000000    -4.162000000     0.819000000
O    -5.331000000    -4.855000000    -0.234000000
C    -4.935000000    -4.711000000    -1.520000000
C    -3.596000000    -4.836000000    -1.778000000
H    -2.778000000    -5.022000000    -1.087000000
C    -5.949000000    -4.599000000    -2.476000000
H    -6.979000000    -4.498000000    -2.145000000
C    -5.550000000    -4.469000000    -3.813000000
H    -6.234000000    -4.258000000    -4.630000000
C    -4.179000000    -4.471000000    -4.079000000
H    -3.824000000    -4.384000000    -5.103000000
C    -3.235000000    -4.716000000    -3.118000000
O    -1.935000000    -4.800000000    -3.462000000
C    -1.270000000    -3.761000000    -4.045000000
C    -0.132000000    -3.926000000    -4.851000000
H     0.159000000    -4.947000000    -5.081000000
C     0.601000000    -2.852000000    -5.353000000
O     1.800000000    -3.116000000    -5.956000000
C     2.907000000    -2.256000000    -5.931000000
C     3.691000000    -2.193000000    -4.823000000
H     3.351000000    -2.773000000    -3.969000000
C     3.251000000    -1.458000000    -7.074000000
H     2.652000000    -1.373000000    -7.978000000
C     4.358000000    -0.613000000    -6.962000000
H     4.596000000     0.127000000    -7.721000000
C     5.136000000    -0.578000000    -5.795000000
H     6.025000000     0.040000000    -5.698000000
C     4.785000000    -1.347000000    -4.710000000
O     5.600000000    -1.387000000    -3.608000000
C     5.386000000    -0.585000000    -2.453000000
C     6.027000000    -0.993000000    -1.311000000
H     6.654000000    -1.876000000    -1.219000000
C     5.868000000    -0.350000000    -0.087000000
O     6.595000000    -0.799000000     1.011000000
C     6.497000000    -0.152000000     2.207000000
C     7.381000000     0.870000000     2.414000000
H     8.068000000     1.184000000     1.633000000
C     7.357000000     1.523000000     3.673000000
H     8.011000000     2.378000000     3.822000000
C     6.461000000     1.057000000     4.701000000
H     6.349000000     1.604000000     5.634000000
C     5.594000000    -0.004000000     4.435000000
C     5.599000000    -0.577000000     3.202000000
H     5.085000000    -1.509000000     2.981000000
C     0.840000000    -0.669000000    -1.175000000
H     1.345000000    -0.602000000    -2.136000000
C     0.002000000     0.407000000    -0.768000000
H    -0.184000000     1.164000000    -1.526000000
C    -0.610000000     0.416000000     0.498000000
H    -1.212000000     1.260000000     0.830000000
C    -0.256000000    -0.643000000     1.383000000
H    -0.670000000    -0.728000000     2.385000000
C     0.630000000    -1.624000000     0.965000000
H     0.971000000    -2.448000000     1.586000000
C     1.120000000    -1.662000000    -0.304000000
C     1.971000000    -2.884000000    -0.666000000
O     1.831000000    -3.899000000     0.008000000
O     2.480000000    -2.896000000    -1.712000000
O     4.952000000    -3.801000000    -2.007000000
H     5.339000000    -2.943000000    -2.182000000
H     4.045000000    -3.610000000    -1.768000000
O     4.579000000    -3.488000000     0.880000000
H     3.675000000    -3.278000000     0.647000000
H     4.978000000    -3.774000000     0.058000000
O     4.026000000    -4.345000000     3.555000000
H     3.280000000    -4.748000000     3.111000000
H     4.440000000    -3.802000000     2.884000000
O     2.425000000    -5.655000000    -2.397000000
H     1.695000000    -5.787000000    -1.793000000
H     2.754000000    -4.781000000    -2.189000000
O     4.055000000    -6.435000000    -6.637000000
H     4.619000000    -6.909000000    -7.248000000
H     4.636000000    -6.184000000    -5.920000000
O    -0.488000000    -6.102000000     2.516000000
H    -1.268000000    -6.568000000     2.212000000
H    -0.464000000    -6.265000000     3.459000000
O    -0.586000000    -5.325000000    -0.075000000
H    -0.845000000    -5.441000000     0.839000000
H     0.139000000    -4.700000000    -0.041000000
O     6.551000000    -5.351000000    -5.087000000
H     7.485000000    -5.505000000    -4.940000000
H     6.118000000    -5.803000000    -4.362000000
O     0.364000000    -9.047000000     0.321000000
H    -0.130000000    -9.823000000     0.585000000
H    -0.306000000    -8.393000000     0.122000000
O     4.837000000    -7.095000000    -3.103000000
H     4.059000000    -6.686000000    -2.724000000
H     4.528000000    -7.939000000    -3.433000000
O     3.255000000    -8.734000000     1.959000000
H     2.445000000    -8.622000000     1.462000000
H     3.825000000    -9.236000000     1.378000000
O     6.792000000    -5.788000000    -1.726000000
H     6.244000000    -6.435000000    -2.171000000
H     6.529000000    -4.950000000    -2.105000000
O     6.821000000    -3.720000000     3.855000000
H     6.263000000    -3.689000000     3.077000000
H     7.509000000    -4.347000000     3.631000000
O     7.027000000    -5.233000000     0.985000000
H     7.523000000    -5.812000000     0.405000000
H     6.275000000    -5.757000000     1.259000000
O     1.465000000    -7.588000000    -3.978000000
H     2.050000000    -7.029000000    -3.468000000
H     0.595000000    -7.417000000    -3.618000000
O    -1.058000000    -7.151000000    -2.353000000
H    -0.666000000    -6.600000000    -1.675000000
H    -1.493000000    -6.535000000    -2.941000000
O     5.273000000    -6.921000000     2.777000000
H     4.517000000    -6.971000000     2.192000000
H     4.930000000    -6.522000000     3.577000000
O     2.078000000    -5.441000000     2.189000000
H     2.249000000    -4.990000000     1.362000000
H     1.149000000    -5.668000000     2.150000000
O     1.769000000    -6.091000000     5.117000000
H     1.830000000    -6.004000000     4.166000000
H     1.067000000    -6.727000000     5.255000000
