215
-1427.20724
C    -4.224000000    -2.816000000     0.962000000
H    -4.608000000    -2.497000000    -0.004000000
C    -3.943000000    -1.903000000     1.914000000
C    -3.523000000    -2.327000000     3.153000000
H    -3.264000000    -1.710000000     4.010000000
C    -4.008000000    -0.384000000     1.608000000
O    -4.946000000    -0.151000000     0.525000000
H    -3.063000000    -0.122000000     1.109000000
O    -4.321000000     0.499000000     2.720000000
C    -3.462000000     1.580000000     2.797000000
C    -2.355000000     1.406000000     3.604000000
H    -2.220000000     0.456000000     4.116000000
C    -1.407000000     2.466000000     3.731000000
O    -0.293000000     2.284000000     4.543000000
C    -1.591000000     3.574000000     2.921000000
C    -0.489000000     4.673000000     2.802000000
H    -0.953000000     5.577000000     2.403000000
C     0.608000000     4.244000000     1.855000000
C     0.593000000     4.737000000     0.526000000
H    -0.259000000     5.342000000     0.226000000
H    -0.112000000     4.918000000     3.798000000
C    -2.724000000     3.711000000     2.103000000
H    -2.937000000     4.652000000     1.602000000
C    -3.716000000     2.710000000     2.040000000
C    -4.876000000     2.790000000     1.034000000
H    -5.147000000     3.840000000     0.902000000
H    -5.829000000     2.348000000     1.332000000
C    -4.423000000     2.120000000    -0.274000000
C    -3.696000000     2.906000000    -1.195000000
H    -3.361000000     3.890000000    -0.876000000
C    -4.630000000     0.760000000    -0.517000000
C    -4.182000000     0.152000000    -1.667000000
H    -4.295000000    -0.915000000    -1.839000000
C    -3.534000000     0.960000000    -2.612000000
O    -3.040000000     0.230000000    -3.711000000
C    -1.624000000     0.111000000    -3.936000000
C    -1.240000000    -1.291000000    -4.374000000
C    -0.086000000    -1.544000000    -5.184000000
H     0.490000000    -0.746000000    -5.645000000
C    -2.025000000    -2.373000000    -3.970000000
H    -2.812000000    -2.150000000    -3.253000000
O    -1.105000000     1.095000000    -4.812000000
H    -1.130000000     0.197000000    -2.957000000
C    -3.333000000     2.314000000    -2.412000000
C    -2.613000000     3.161000000    -3.514000000
H    -2.958000000     4.169000000    -3.275000000
H    -3.025000000     2.858000000    -4.479000000
C    -1.148000000     3.149000000    -3.487000000
C    -0.407000000     4.126000000    -2.790000000
H    -1.021000000     4.828000000    -2.232000000
C    -0.435000000     2.177000000    -4.223000000
C     0.946000000     2.145000000    -4.072000000
H     1.398000000     1.237000000    -4.462000000
C     1.659000000     3.088000000    -3.390000000
O     2.962000000     2.790000000    -3.075000000
C     3.231000000     2.293000000    -1.698000000
C     4.305000000     1.207000000    -1.815000000
C     4.186000000     0.192000000    -2.812000000
H     3.280000000     0.233000000    -3.412000000
C     5.286000000     1.035000000    -0.827000000
H     5.328000000     1.693000000     0.038000000
O     3.702000000     3.310000000    -0.861000000
H     2.265000000     1.909000000    -1.338000000
C     0.990000000     4.091000000    -2.689000000
C     1.672000000     5.100000000    -1.777000000
H     1.071000000     6.012000000    -1.799000000
H     2.615000000     5.406000000    -2.236000000
C     1.697000000     4.506000000    -0.337000000
C     2.750000000     3.751000000     0.081000000
C     2.755000000     3.242000000     1.381000000
H     3.641000000     2.656000000     1.614000000
C     1.711000000     3.496000000     2.242000000
O     1.692000000     2.872000000     3.483000000
C     0.843000000     1.761000000     3.758000000
H     0.417000000     1.366000000     2.823000000
C     1.561000000     0.722000000     4.519000000
C     0.838000000    -0.117000000     5.349000000
H    -0.099000000     0.194000000     5.804000000
C     2.742000000     0.282000000     3.933000000
H     3.190000000     0.893000000     3.154000000
C     3.334000000    -0.904000000     4.427000000
O     4.520000000    -1.361000000     3.925000000
C     2.744000000    -1.609000000     5.513000000
H     3.108000000    -2.601000000     5.769000000
C     1.399000000    -1.272000000     5.866000000
O     0.728000000    -1.974000000     6.772000000
C    -0.560000000    -2.193000000     6.726000000
C    -1.150000000    -2.879000000     5.642000000
H    -0.547000000    -3.090000000     4.763000000
C    -1.330000000    -1.872000000     7.837000000
H    -0.799000000    -1.506000000     8.712000000
C    -2.664000000    -2.196000000     7.846000000
H    -3.315000000    -2.035000000     8.701000000
C    -3.182000000    -2.976000000     6.828000000
H    -4.177000000    -3.411000000     6.859000000
C    -2.436000000    -3.329000000     5.746000000
O    -3.016000000    -4.150000000     4.750000000
C    -3.391000000    -3.697000000     3.489000000
C    -3.676000000    -4.550000000     2.477000000
H    -3.575000000    -5.600000000     2.741000000
C    -4.135000000    -4.185000000     1.205000000
O    -4.337000000    -5.232000000     0.234000000
C    -4.405000000    -4.980000000    -1.135000000
C    -3.288000000    -4.902000000    -1.913000000
H    -2.277000000    -4.965000000    -1.519000000
C    -5.668000000    -4.689000000    -1.645000000
H    -6.529000000    -4.813000000    -0.994000000
C    -5.875000000    -4.434000000    -3.029000000
H    -6.839000000    -4.169000000    -3.457000000
C    -4.724000000    -4.359000000    -3.748000000
H    -4.874000000    -4.153000000    -4.805000000
C    -3.517000000    -4.785000000    -3.250000000
O    -2.432000000    -4.745000000    -4.053000000
C    -1.720000000    -3.673000000    -4.451000000
C    -0.644000000    -3.906000000    -5.250000000
H    -0.512000000    -4.893000000    -5.685000000
C     0.132000000    -2.811000000    -5.688000000
O     1.230000000    -3.012000000    -6.454000000
C     2.375000000    -2.261000000    -6.367000000
C     3.253000000    -2.438000000    -5.333000000
H     2.976000000    -3.295000000    -4.724000000
C     2.586000000    -1.198000000    -7.226000000
H     1.880000000    -1.054000000    -8.040000000
C     3.710000000    -0.401000000    -7.179000000
H     3.888000000     0.349000000    -7.945000000
C     4.532000000    -0.525000000    -6.074000000
H     5.349000000     0.188000000    -5.996000000
C     4.253000000    -1.512000000    -5.028000000
O     5.081000000    -1.704000000    -4.003000000
C     5.184000000    -0.837000000    -2.894000000
C     6.116000000    -0.980000000    -1.888000000
H     6.886000000    -1.748000000    -1.860000000
C     6.134000000    -0.055000000    -0.798000000
O     7.039000000    -0.275000000     0.153000000
C     6.727000000    -0.026000000     1.432000000
C     7.640000000     0.735000000     2.065000000
H     8.549000000     1.053000000     1.560000000
C     7.442000000     0.909000000     3.480000000
H     8.114000000     1.411000000     4.171000000
C     6.388000000     0.215000000     4.110000000
H     6.186000000     0.320000000     5.173000000
C     5.485000000    -0.582000000     3.373000000
C     5.635000000    -0.635000000     2.001000000
H     4.991000000    -1.254000000     1.381000000
C     1.782000000    -1.946000000    -0.879000000
H     2.501000000    -2.485000000    -1.490000000
C     1.052000000    -0.872000000    -1.462000000
H     1.068000000    -0.706000000    -2.536000000
C     0.137000000    -0.144000000    -0.647000000
H    -0.349000000     0.726000000    -1.033000000
C     0.021000000    -0.417000000     0.679000000
H    -0.670000000     0.152000000     1.295000000
C     0.572000000    -1.621000000     1.154000000
H     0.262000000    -1.808000000     2.179000000
C     1.530000000    -2.291000000     0.459000000
C     2.106000000    -3.638000000     0.973000000
O     1.586000000    -4.071000000     1.994000000
O     3.096000000    -4.123000000     0.431000000
O     5.594000000    -4.525000000    -2.841000000
H     5.296000000    -3.622000000    -2.731000000
H     5.376000000    -4.740000000    -3.747000000
O     5.884000000    -4.309000000    -0.014000000
H     6.000000000    -4.695000000    -0.882000000
H     4.938000000    -4.326000000     0.132000000
O     4.912000000    -4.060000000     3.511000000
H     4.014000000    -4.391000000     3.512000000
H     4.816000000    -3.108000000     3.514000000
O     2.937000000    -5.742000000    -1.753000000
H     2.833000000    -5.313000000    -0.904000000
H     3.735000000    -5.359000000    -2.119000000
O     5.634000000    -4.907000000     6.412000000
H     4.768000000    -5.026000000     6.801000000
H     5.459000000    -4.732000000     5.487000000
O     0.235000000    -7.360000000     5.289000000
H    -0.144000000    -7.627000000     4.451000000
H     0.912000000    -8.014000000     5.464000000
O     0.477000000    -6.361000000     1.402000000
H    -0.198000000    -6.255000000     0.731000000
H     0.775000000    -5.470000000     1.584000000
O     3.211000000    -6.845000000     1.434000000
H     3.136000000    -5.909000000     1.246000000
H     2.315000000    -7.124000000     1.623000000
O     3.901000000    -8.432000000    -2.100000000
H     3.653000000    -7.539000000    -2.338000000
H     3.568000000    -8.972000000    -2.816000000
O     5.414000000    -8.600000000     1.642000000
H     5.422000000    -9.089000000     0.819000000
H     4.580000000    -8.131000000     1.634000000
O     6.757000000    -6.717000000    -1.789000000
H     6.149000000    -7.434000000    -1.611000000
H     6.330000000    -6.206000000    -2.477000000
O     7.338000000    -4.620000000     2.379000000
H     6.978000000    -4.533000000     1.496000000
H     6.629000000    -4.336000000     2.956000000
O    -0.860000000    -8.526000000     2.865000000
H    -0.867000000    -7.976000000     2.081000000
H    -0.631000000    -9.398000000     2.543000000
O     8.056000000    -7.247000000     0.691000000
H     7.470000000    -6.976000000    -0.016000000
H     7.878000000    -8.181000000     0.805000000
O     0.185000000    -7.166000000    -2.526000000
H     1.048000000    -6.931000000    -2.187000000
H    -0.060000000    -6.429000000    -3.087000000
O    -2.061000000    -7.803000000     0.310000000
H    -1.732000000    -8.199000000    -0.497000000
H    -2.675000000    -7.131000000     0.015000000
O     4.288000000    -7.557000000     4.498000000
H     3.919000000    -7.513000000     3.616000000
H     4.152000000    -6.680000000     4.858000000
O     8.447000000    -2.867000000     0.076000000
H     8.159000000    -2.210000000     0.709000000
H     7.679000000    -3.422000000    -0.060000000
O     2.047000000    -4.924000000     4.435000000
H     1.639000000    -4.593000000     3.635000000
H     1.557000000    -5.719000000     4.643000000
