215
-1440.81191
C    -3.383000000    -2.466000000    -0.075000000
H    -3.553000000    -2.229000000    -1.122000000
C    -3.555000000    -1.561000000     0.972000000
C    -3.326000000    -1.980000000     2.293000000
H    -3.591000000    -1.285000000     3.085000000
C    -3.880000000    -0.125000000     0.621000000
O    -4.746000000    -0.034000000    -0.523000000
H    -2.889000000     0.238000000     0.314000000
O    -4.384000000     0.538000000     1.708000000
C    -3.679000000     1.644000000     1.974000000
C    -2.855000000     1.557000000     3.083000000
H    -2.745000000     0.620000000     3.622000000
C    -1.995000000     2.576000000     3.399000000
O    -1.074000000     2.466000000     4.422000000
C    -2.027000000     3.739000000     2.591000000
C    -1.062000000     4.922000000     2.726000000
H    -1.532000000     5.731000000     2.162000000
C     0.235000000     4.593000000     2.121000000
C     0.436000000     4.887000000     0.757000000
H    -0.298000000     5.542000000     0.293000000
H    -0.825000000     5.237000000     3.744000000
C    -2.874000000     3.824000000     1.492000000
H    -2.901000000     4.655000000     0.792000000
C    -3.801000000     2.757000000     1.209000000
C    -4.704000000     2.880000000     0.018000000
H    -4.926000000     3.939000000    -0.130000000
H    -5.616000000     2.331000000     0.261000000
C    -4.091000000     2.219000000    -1.208000000
C    -3.621000000     3.067000000    -2.266000000
H    -3.604000000     4.152000000    -2.192000000
C    -4.284000000     0.858000000    -1.478000000
C    -3.878000000     0.339000000    -2.698000000
H    -4.003000000    -0.721000000    -2.903000000
C    -3.106000000     1.096000000    -3.582000000
O    -2.571000000     0.355000000    -4.654000000
C    -1.164000000    -0.021000000    -4.721000000
C    -0.856000000    -1.233000000    -5.440000000
C     0.421000000    -1.478000000    -5.955000000
H     1.209000000    -0.729000000    -5.993000000
C    -1.791000000    -2.240000000    -5.507000000
H    -2.744000000    -2.073000000    -5.014000000
O    -0.353000000     1.076000000    -5.211000000
H    -0.792000000    -0.191000000    -3.700000000
C    -2.988000000     2.479000000    -3.350000000
C    -2.121000000     3.217000000    -4.282000000
H    -2.316000000     4.287000000    -4.184000000
H    -2.421000000     2.899000000    -5.282000000
C    -0.651000000     2.967000000    -3.852000000
C    -0.102000000     3.853000000    -2.863000000
H    -0.786000000     4.577000000    -2.427000000
C     0.193000000     2.015000000    -4.359000000
C     1.474000000     1.790000000    -3.840000000
H     2.069000000     0.930000000    -4.137000000
C     1.973000000     2.610000000    -2.828000000
O     3.179000000     2.368000000    -2.213000000
C     2.933000000     1.932000000    -0.821000000
C     3.718000000     0.570000000    -0.599000000
C     3.464000000    -0.536000000    -1.458000000
H     2.877000000    -0.458000000    -2.369000000
C     4.535000000     0.322000000     0.489000000
H     4.760000000     1.064000000     1.250000000
O     3.428000000     2.976000000     0.031000000
H     1.894000000     1.656000000    -0.586000000
C     1.178000000     3.690000000    -2.404000000
C     1.716000000     4.813000000    -1.443000000
H     1.227000000     5.760000000    -1.681000000
H     2.796000000     4.840000000    -1.603000000
C     1.566000000     4.483000000     0.040000000
C     2.549000000     3.711000000     0.726000000
C     2.437000000     3.439000000     2.043000000
H     3.117000000     2.757000000     2.547000000
C     1.313000000     3.870000000     2.759000000
O     1.058000000     3.365000000     3.990000000
C     0.273000000     2.120000000     4.064000000
H     0.221000000     1.695000000     3.051000000
C     0.867000000     1.110000000     5.010000000
C     0.043000000     0.217000000     5.616000000
H    -1.032000000     0.354000000     5.535000000
C     2.246000000     0.968000000     5.119000000
H     2.864000000     1.668000000     4.564000000
C     2.723000000    -0.156000000     5.890000000
O     4.060000000    -0.399000000     6.028000000
C     1.910000000    -0.886000000     6.721000000
H     2.408000000    -1.598000000     7.375000000
C     0.579000000    -0.783000000     6.468000000
O    -0.227000000    -1.534000000     7.211000000
C    -1.453000000    -1.886000000     6.671000000
C    -1.601000000    -2.696000000     5.540000000
H    -0.725000000    -3.078000000     5.021000000
C    -2.633000000    -1.579000000     7.360000000
H    -2.565000000    -1.099000000     8.333000000
C    -3.847000000    -1.782000000     6.813000000
H    -4.724000000    -1.534000000     7.405000000
C    -3.975000000    -2.574000000     5.694000000
H    -4.980000000    -2.860000000     5.392000000
C    -2.831000000    -2.874000000     5.008000000
O    -2.859000000    -3.673000000     3.900000000
C    -2.926000000    -3.274000000     2.568000000
C    -2.736000000    -4.170000000     1.511000000
H    -2.410000000    -5.185000000     1.725000000
C    -2.855000000    -3.758000000     0.154000000
O    -2.512000000    -4.640000000    -0.786000000
C    -3.146000000    -4.604000000    -2.066000000
C    -2.418000000    -4.477000000    -3.265000000
H    -1.334000000    -4.508000000    -3.185000000
C    -4.550000000    -4.554000000    -2.181000000
H    -5.242000000    -4.480000000    -1.346000000
C    -5.118000000    -4.552000000    -3.421000000
H    -6.203000000    -4.616000000    -3.395000000
C    -4.365000000    -4.626000000    -4.592000000
H    -4.778000000    -4.735000000    -5.591000000
C    -2.995000000    -4.526000000    -4.525000000
O    -2.273000000    -4.541000000    -5.737000000
C    -1.487000000    -3.475000000    -6.063000000
C    -0.233000000    -3.763000000    -6.545000000
H     0.118000000    -4.765000000    -6.779000000
C     0.723000000    -2.754000000    -6.470000000
O     2.030000000    -3.109000000    -6.629000000
C     3.064000000    -2.638000000    -5.889000000
C     3.112000000    -3.030000000    -4.542000000
H     2.412000000    -3.797000000    -4.221000000
C     4.042000000    -1.769000000    -6.371000000
H     3.857000000    -1.367000000    -7.365000000
C     5.030000000    -1.213000000    -5.609000000
H     5.761000000    -0.483000000    -5.947000000
C     4.995000000    -1.499000000    -4.186000000
H     5.581000000    -0.916000000    -3.479000000
C     4.034000000    -2.394000000    -3.654000000
O     4.131000000    -2.731000000    -2.298000000
C     4.218000000    -1.724000000    -1.354000000
C     5.135000000    -1.829000000    -0.334000000
H     5.719000000    -2.722000000    -0.129000000
C     5.255000000    -0.828000000     0.634000000
O     6.139000000    -1.068000000     1.639000000
C     6.075000000    -0.444000000     2.914000000
C     7.305000000     0.060000000     3.348000000
H     8.149000000     0.145000000     2.668000000
C     7.411000000     0.474000000     4.729000000
H     8.333000000     0.880000000     5.138000000
C     6.288000000     0.322000000     5.594000000
H     6.464000000     0.620000000     6.625000000
C     5.087000000    -0.236000000     5.118000000
C     5.024000000    -0.627000000     3.808000000
H     4.081000000    -0.942000000     3.368000000
C     0.384000000    -1.228000000    -0.971000000
H     0.713000000    -1.500000000    -1.970000000
C    -0.103000000     0.115000000    -0.830000000
H    -0.288000000     0.824000000    -1.633000000
C    -0.563000000     0.429000000     0.448000000
H    -1.147000000     1.364000000     0.463000000
C    -0.318000000    -0.423000000     1.543000000
H    -0.491000000    -0.124000000     2.574000000
C     0.175000000    -1.625000000     1.320000000
H     0.248000000    -2.315000000     2.157000000
C     0.525000000    -2.104000000     0.073000000
C     1.016000000    -3.463000000    -0.222000000
O     1.091000000    -4.333000000     0.701000000
O     1.193000000    -3.771000000    -1.359000000
O     3.265000000    -5.453000000    -1.090000000
H     2.641000000    -4.753000000    -1.282000000
H     2.824000000    -5.994000000    -0.435000000
O     6.055000000    -5.167000000    -1.315000000
H     5.102000000    -5.239000000    -1.269000000
H     6.226000000    -4.810000000    -2.187000000
O     3.447000000    -4.186000000     2.392000000
H     3.715000000    -5.099000000     2.503000000
H     2.701000000    -4.227000000     1.795000000
O     5.962000000    -4.816000000     1.900000000
H     5.271000000    -4.203000000     2.150000000
H     5.559000000    -5.680000000     1.988000000
O     0.897000000    -6.041000000    -2.684000000
H     1.602000000    -5.916000000    -3.318000000
H     0.956000000    -5.280000000    -2.107000000
O    -1.618000000    -6.902000000     3.734000000
H    -0.876000000    -7.087000000     3.158000000
H    -2.315000000    -7.477000000     3.418000000
O    -0.191000000    -6.637000000     0.808000000
H    -0.082000000    -5.689000000     0.878000000
H     0.506000000    -6.915000000     0.213000000
O     2.645000000    -6.171000000    -4.864000000
H     2.148000000    -6.296000000    -5.673000000
H     3.517000000    -5.905000000    -5.158000000
O     1.673000000    -8.423000000     3.795000000
H     0.983000000    -8.429000000     4.458000000
H     2.476000000    -8.246000000     4.286000000
O     4.128000000    -7.543000000    -2.725000000
H     3.459000000    -7.239000000    -3.339000000
H     3.936000000    -7.076000000    -1.912000000
O     3.044000000    -9.860000000     0.380000000
H     2.981000000    -9.193000000     1.063000000
H     2.215000000    -9.797000000    -0.094000000
O     7.959000000    -3.510000000    -0.289000000
H     7.189000000    -4.059000000    -0.435000000
H     7.787000000    -3.071000000     0.544000000
O     0.537000000    -9.027000000    -0.633000000
H    -0.265000000    -8.885000000    -1.136000000
H     0.242000000    -9.088000000     0.276000000
O     0.813000000    -8.420000000    -5.286000000
H     1.000000000    -8.341000000    -4.351000000
H     0.944000000    -7.538000000    -5.632000000
O    -2.225000000    -8.462000000     1.256000000
H    -1.682000000    -7.824000000     0.793000000
H    -1.660000000    -9.229000000     1.356000000
O    -1.251000000    -7.750000000    -2.155000000
H    -1.871000000    -7.326000000    -2.748000000
H    -0.417000000    -7.312000000    -2.326000000
O     4.850000000    -7.399000000     1.057000000
H     4.866000000    -8.179000000     1.612000000
H     5.681000000    -7.425000000     0.583000000
O     0.423000000    -4.503000000     3.404000000
H     0.874000000    -4.153000000     2.637000000
H    -0.345000000    -4.949000000     3.048000000
O     2.339000000    -4.893000000     5.568000000
H     1.741000000    -4.554000000     4.902000000
H     3.040000000    -4.242000000     5.613000000
