215
-1461.63769
C    -4.635000000    -2.770000000     1.115000000
H    -5.228000000    -2.472000000     0.255000000
C    -3.952000000    -1.835000000     1.839000000
C    -3.343000000    -2.228000000     2.997000000
H    -2.800000000    -1.501000000     3.595000000
C    -4.082000000    -0.351000000     1.471000000
O    -5.078000000    -0.074000000     0.460000000
H    -3.100000000    -0.218000000     0.993000000
O    -4.299000000     0.455000000     2.589000000
C    -3.354000000     1.544000000     2.678000000
C    -2.244000000     1.411000000     3.480000000
H    -2.131000000     0.594000000     4.188000000
C    -1.312000000     2.494000000     3.530000000
O    -0.199000000     2.456000000     4.330000000
C    -1.474000000     3.595000000     2.741000000
C    -0.465000000     4.789000000     2.668000000
H    -0.994000000     5.673000000     2.306000000
C     0.657000000     4.518000000     1.704000000
C     0.471000000     4.886000000     0.386000000
H    -0.471000000     5.343000000     0.093000000
H    -0.042000000     5.008000000     3.650000000
C    -2.556000000     3.620000000     1.904000000
H    -2.648000000     4.427000000     1.182000000
C    -3.549000000     2.633000000     1.855000000
C    -4.792000000     2.736000000     0.876000000
H    -4.980000000     3.783000000     0.631000000
H    -5.698000000     2.239000000     1.229000000
C    -4.456000000     2.104000000    -0.443000000
C    -3.870000000     2.847000000    -1.451000000
H    -3.781000000     3.924000000    -1.331000000
C    -4.605000000     0.723000000    -0.561000000
C    -4.227000000     0.054000000    -1.698000000
H    -4.312000000    -1.028000000    -1.767000000
C    -3.765000000     0.841000000    -2.720000000
O    -3.248000000     0.109000000    -3.782000000
C    -1.807000000    -0.144000000    -3.760000000
C    -1.701000000    -1.620000000    -4.100000000
C    -0.589000000    -2.040000000    -4.812000000
H     0.152000000    -1.327000000    -5.164000000
C    -2.589000000    -2.603000000    -3.665000000
H    -3.478000000    -2.315000000    -3.110000000
O    -1.179000000     0.789000000    -4.639000000
H    -1.436000000     0.007000000    -2.736000000
C    -3.633000000     2.249000000    -2.644000000
C    -2.840000000     3.010000000    -3.840000000
H    -3.289000000     4.005000000    -3.873000000
H    -3.037000000     2.505000000    -4.788000000
C    -1.342000000     3.029000000    -3.689000000
C    -0.719000000     4.053000000    -2.932000000
H    -1.276000000     4.923000000    -2.597000000
C    -0.602000000     1.870000000    -4.067000000
C     0.740000000     1.792000000    -3.811000000
H     1.332000000     0.938000000    -4.129000000
C     1.363000000     2.910000000    -3.206000000
O     2.718000000     2.894000000    -3.062000000
C     3.166000000     2.413000000    -1.814000000
C     4.263000000     1.344000000    -1.897000000
C     4.110000000     0.278000000    -2.808000000
H     3.262000000     0.171000000    -3.481000000
C     5.300000000     1.257000000    -0.966000000
H     5.350000000     1.906000000    -0.095000000
O     3.563000000     3.552000000    -1.085000000
H     2.307000000     1.933000000    -1.321000000
C     0.629000000     4.029000000    -2.741000000
C     1.314000000     5.161000000    -1.986000000
H     0.794000000     6.120000000    -2.016000000
H     2.311000000     5.361000000    -2.384000000
C     1.524000000     4.699000000    -0.535000000
C     2.601000000     3.957000000    -0.121000000
C     2.774000000     3.572000000     1.227000000
H     3.604000000     2.957000000     1.569000000
C     1.780000000     3.825000000     2.169000000
O     1.914000000     3.210000000     3.449000000
C     1.090000000     2.103000000     3.696000000
H     0.895000000     1.718000000     2.684000000
C     1.992000000     1.046000000     4.390000000
C     1.366000000     0.044000000     5.098000000
H     0.280000000     0.084000000     5.148000000
C     3.416000000     1.004000000     4.187000000
H     3.898000000     1.652000000     3.460000000
C     4.083000000    -0.079000000     4.668000000
O     5.438000000    -0.274000000     4.430000000
C     3.508000000    -1.033000000     5.568000000
H     4.073000000    -1.813000000     6.072000000
C     2.125000000    -1.016000000     5.670000000
O     1.530000000    -1.988000000     6.492000000
C     0.188000000    -2.248000000     6.353000000
C    -0.415000000    -2.926000000     5.255000000
H     0.232000000    -3.326000000     4.478000000
C    -0.685000000    -1.672000000     7.341000000
H    -0.271000000    -1.220000000     8.238000000
C    -2.071000000    -1.917000000     7.243000000
H    -2.798000000    -1.526000000     7.950000000
C    -2.578000000    -2.623000000     6.158000000
H    -3.611000000    -2.943000000     6.038000000
C    -1.747000000    -3.099000000     5.230000000
O    -2.238000000    -3.913000000     4.236000000
C    -3.229000000    -3.527000000     3.408000000
C    -3.872000000    -4.485000000     2.630000000
H    -3.662000000    -5.520000000     2.887000000
C    -4.620000000    -4.081000000     1.541000000
O    -5.081000000    -5.164000000     0.780000000
C    -5.238000000    -4.993000000    -0.605000000
C    -4.128000000    -5.063000000    -1.387000000
H    -3.155000000    -5.280000000    -0.955000000
C    -6.502000000    -4.689000000    -1.198000000
H    -7.321000000    -4.580000000    -0.492000000
C    -6.551000000    -4.515000000    -2.602000000
H    -7.504000000    -4.289000000    -3.072000000
C    -5.466000000    -4.675000000    -3.421000000
H    -5.624000000    -4.450000000    -4.472000000
C    -4.236000000    -4.899000000    -2.807000000
O    -3.089000000    -4.980000000    -3.539000000
C    -2.263000000    -3.979000000    -3.893000000
C    -1.134000000    -4.336000000    -4.628000000
H    -1.004000000    -5.398000000    -4.818000000
C    -0.269000000    -3.386000000    -5.034000000
O     0.808000000    -3.823000000    -5.730000000
C     1.946000000    -3.067000000    -5.714000000
C     2.755000000    -2.938000000    -4.601000000
H     2.574000000    -3.458000000    -3.663000000
C     2.362000000    -2.473000000    -6.932000000
H     1.741000000    -2.550000000    -7.821000000
C     3.535000000    -1.742000000    -6.981000000
H     3.896000000    -1.274000000    -7.894000000
C     4.340000000    -1.498000000    -5.843000000
H     5.187000000    -0.817000000    -5.804000000
C     3.953000000    -2.105000000    -4.652000000
O     4.715000000    -1.987000000    -3.505000000
C     4.958000000    -0.834000000    -2.746000000
C     6.067000000    -0.833000000    -1.923000000
H     6.745000000    -1.683000000    -1.913000000
C     6.215000000     0.163000000    -0.956000000
O     7.175000000     0.047000000    -0.044000000
C     7.139000000     0.414000000     1.254000000
C     8.236000000     1.136000000     1.701000000
H     9.022000000     1.329000000     0.975000000
C     8.320000000     1.494000000     3.063000000
H     9.208000000     2.024000000     3.398000000
C     7.356000000     0.968000000     3.983000000
H     7.497000000     1.169000000     5.042000000
C     6.240000000     0.334000000     3.481000000
C     6.108000000    -0.015000000     2.119000000
H     5.363000000    -0.735000000     1.788000000
C     1.731000000    -1.518000000    -0.651000000
H     2.598000000    -1.966000000    -1.130000000
C     0.944000000    -0.593000000    -1.273000000
H     1.050000000    -0.355000000    -2.329000000
C     0.054000000     0.173000000    -0.556000000
H    -0.624000000     0.928000000    -1.100000000
C    -0.174000000    -0.106000000     0.782000000
H    -0.893000000     0.492000000     1.336000000
C     0.480000000    -1.158000000     1.412000000
H     0.260000000    -1.424000000     2.442000000
C     1.413000000    -1.856000000     0.667000000
C     2.194000000    -2.981000000     1.389000000
O     1.732000000    -3.534000000     2.354000000
O     3.326000000    -3.305000000     0.974000000
O     4.614000000    -4.412000000    -2.304000000
H     4.821000000    -3.643000000    -2.836000000
H     5.224000000    -5.084000000    -2.608000000
O     5.653000000    -3.942000000     0.150000000
H     5.361000000    -4.200000000    -0.724000000
H     4.857000000    -3.642000000     0.590000000
O     5.386000000    -3.046000000     3.696000000
H     5.472000000    -3.633000000     2.945000000
H     4.453000000    -3.066000000     3.910000000
O     2.499000000    -5.193000000    -0.769000000
H     2.629000000    -4.341000000    -0.352000000
H     3.284000000    -5.322000000    -1.301000000
O     0.441000000    -5.969000000     4.923000000
H    -0.226000000    -5.854000000     4.247000000
H    -0.024000000    -5.825000000     5.747000000
O     2.295000000    -4.863000000     7.035000000
H     2.459000000    -4.273000000     6.298000000
H     1.442000000    -5.253000000     6.845000000
O    -0.716000000    -5.103000000     2.248000000
H    -1.286000000    -4.351000000     2.087000000
H     0.169000000    -4.739000000     2.239000000
O     4.087000000    -5.319000000     2.553000000
H     3.714000000    -4.924000000     3.341000000
H     3.904000000    -4.685000000     1.859000000
O     1.956000000    -7.856000000     0.464000000
H     1.906000000    -7.004000000     0.032000000
H     2.876000000    -7.945000000     0.712000000
O     6.006000000    -7.515000000     2.361000000
H     5.570000000    -8.286000000     1.998000000
H     5.375000000    -6.805000000     2.241000000
O     4.734000000    -7.967000000    -2.004000000
H     3.836000000    -7.700000000    -2.201000000
H     4.832000000    -8.816000000    -2.437000000
O     7.484000000    -2.534000000     5.516000000
H     6.765000000    -2.475000000     4.887000000
H     7.056000000    -2.728000000     6.351000000
O    -2.303000000    -7.065000000     1.139000000
H    -1.719000000    -6.343000000     1.371000000
H    -1.715000000    -7.783000000     0.907000000
O     7.981000000    -4.221000000     1.759000000
H     7.999000000    -3.349000000     2.152000000
H     7.223000000    -4.205000000     1.174000000
O     1.996000000    -7.116000000    -3.072000000
H     1.845000000    -6.288000000    -2.616000000
H     1.159000000    -7.576000000    -3.016000000
O     2.311000000    -8.079000000     4.692000000
H     2.524000000    -7.450000000     4.002000000
H     1.638000000    -7.642000000     5.213000000
O     5.625000000    -5.557000000     6.360000000
H     5.522000000    -5.257000000     5.457000000
H     5.696000000    -4.752000000     6.874000000
O     0.693000000    -9.555000000    -1.088000000
H     1.210000000    -8.991000000    -0.513000000
H    -0.107000000    -9.057000000    -1.257000000
O     2.668000000    -4.167000000     4.520000000
H     2.332000000    -3.849000000     3.682000000
H     1.958000000    -4.703000000     4.874000000
