215
-1484.20881
C    -4.816000000    -2.293000000     0.506000000
H    -4.786000000    -2.013000000    -0.544000000
C    -4.759000000    -1.317000000     1.498000000
C    -4.584000000    -1.704000000     2.839000000
H    -4.371000000    -0.981000000     3.622000000
C    -4.465000000     0.139000000     1.089000000
O    -5.130000000     0.411000000    -0.179000000
H    -3.372000000     0.152000000     0.968000000
O    -4.784000000     1.149000000     2.126000000
C    -3.785000000     2.088000000     2.285000000
C    -2.887000000     1.866000000     3.341000000
H    -3.039000000     1.031000000     4.021000000
C    -1.753000000     2.718000000     3.383000000
O    -0.729000000     2.425000000     4.238000000
C    -1.599000000     3.849000000     2.557000000
C    -0.468000000     4.857000000     2.715000000
H    -0.776000000     5.829000000     2.324000000
C     0.683000000     4.409000000     1.888000000
C     0.839000000     4.859000000     0.545000000
H     0.155000000     5.615000000     0.170000000
H    -0.217000000     5.032000000     3.764000000
C    -2.560000000     4.060000000     1.605000000
H    -2.497000000     4.944000000     0.975000000
C    -3.575000000     3.133000000     1.435000000
C    -4.522000000     3.285000000     0.259000000
H    -4.680000000     4.327000000    -0.029000000
H    -5.531000000     3.080000000     0.624000000
C    -4.050000000     2.400000000    -0.947000000
C    -3.267000000     3.001000000    -1.911000000
H    -3.021000000     4.026000000    -1.645000000
C    -4.339000000     1.037000000    -1.123000000
C    -3.792000000     0.284000000    -2.156000000
H    -4.009000000    -0.778000000    -2.237000000
C    -2.986000000     0.962000000    -3.164000000
O    -2.409000000     0.241000000    -4.108000000
C    -0.990000000    -0.012000000    -3.979000000
C    -0.712000000    -1.463000000    -4.333000000
C     0.410000000    -1.820000000    -5.174000000
H     1.048000000    -1.017000000    -5.534000000
C    -1.477000000    -2.500000000    -3.808000000
H    -2.274000000    -2.239000000    -3.118000000
O    -0.202000000     0.870000000    -4.843000000
H    -0.685000000     0.095000000    -2.928000000
C    -2.728000000     2.364000000    -3.059000000
C    -1.920000000     3.169000000    -4.031000000
H    -2.084000000     4.247000000    -3.978000000
H    -2.109000000     2.765000000    -5.028000000
C    -0.374000000     3.011000000    -3.687000000
C     0.280000000     4.011000000    -2.932000000
H    -0.242000000     4.860000000    -2.499000000
C     0.376000000     1.920000000    -4.168000000
C     1.746000000     1.805000000    -3.830000000
H     2.311000000     0.949000000    -4.191000000
C     2.391000000     2.815000000    -3.132000000
O     3.614000000     2.449000000    -2.708000000
C     3.607000000     1.908000000    -1.375000000
C     4.488000000     0.717000000    -1.218000000
C     4.412000000    -0.299000000    -2.253000000
H     3.912000000    -0.021000000    -3.177000000
C     5.227000000     0.348000000    -0.053000000
H     5.316000000     0.990000000     0.820000000
O     3.911000000     2.871000000    -0.371000000
H     2.558000000     1.602000000    -1.246000000
C     1.616000000     3.935000000    -2.642000000
C     2.195000000     4.873000000    -1.668000000
H     1.697000000     5.835000000    -1.804000000
H     3.246000000     5.053000000    -1.903000000
C     1.981000000     4.409000000    -0.224000000
C     2.861000000     3.448000000     0.319000000
C     2.690000000     3.127000000     1.652000000
H     3.360000000     2.380000000     2.069000000
C     1.647000000     3.584000000     2.411000000
O     1.476000000     3.054000000     3.680000000
C     0.522000000     1.972000000     3.689000000
H     0.411000000     1.687000000     2.633000000
C     1.036000000     0.801000000     4.514000000
C     0.152000000    -0.133000000     5.144000000
H    -0.924000000    -0.060000000     5.002000000
C     2.416000000     0.547000000     4.562000000
H     3.107000000     1.096000000     3.926000000
C     2.915000000    -0.550000000     5.307000000
O     4.247000000    -0.800000000     5.374000000
C     2.038000000    -1.457000000     5.854000000
H     2.412000000    -2.320000000     6.400000000
C     0.681000000    -1.295000000     5.757000000
O    -0.142000000    -2.340000000     6.167000000
C    -1.504000000    -2.340000000     6.209000000
C    -2.284000000    -3.022000000     5.273000000
H    -1.838000000    -3.648000000     4.505000000
C    -2.078000000    -1.629000000     7.259000000
H    -1.514000000    -1.108000000     8.028000000
C    -3.468000000    -1.652000000     7.362000000
H    -3.942000000    -1.206000000     8.233000000
C    -4.296000000    -2.442000000     6.501000000
H    -5.381000000    -2.405000000     6.560000000
C    -3.694000000    -3.125000000     5.434000000
O    -4.524000000    -3.615000000     4.480000000
C    -4.635000000    -3.114000000     3.193000000
C    -4.823000000    -4.028000000     2.160000000
H    -4.940000000    -5.087000000     2.374000000
C    -4.920000000    -3.652000000     0.806000000
O    -5.072000000    -4.657000000    -0.088000000
C    -4.811000000    -4.543000000    -1.421000000
C    -3.543000000    -4.811000000    -1.846000000
H    -2.796000000    -5.139000000    -1.128000000
C    -5.808000000    -4.115000000    -2.300000000
H    -6.823000000    -3.891000000    -1.983000000
C    -5.548000000    -3.963000000    -3.632000000
H    -6.282000000    -3.572000000    -4.332000000
C    -4.232000000    -4.230000000    -4.110000000
H    -3.969000000    -4.268000000    -5.164000000
C    -3.251000000    -4.625000000    -3.216000000
O    -1.974000000    -4.842000000    -3.772000000
C    -1.278000000    -3.805000000    -4.257000000
C    -0.211000000    -4.136000000    -5.139000000
H    -0.081000000    -5.160000000    -5.481000000
C     0.595000000    -3.137000000    -5.599000000
O     1.675000000    -3.514000000    -6.383000000
C     2.886000000    -2.823000000    -6.172000000
C     3.436000000    -2.886000000    -4.858000000
H     2.910000000    -3.502000000    -4.134000000
C     3.575000000    -2.172000000    -7.192000000
H     3.330000000    -2.275000000    -8.246000000
C     4.698000000    -1.464000000    -6.814000000
H     5.219000000    -0.982000000    -7.637000000
C     5.220000000    -1.426000000    -5.545000000
H     6.086000000    -0.845000000    -5.235000000
C     4.625000000    -2.185000000    -4.533000000
O     5.262000000    -2.445000000    -3.275000000
C     5.187000000    -1.465000000    -2.218000000
C     5.851000000    -1.830000000    -0.999000000
H     6.449000000    -2.736000000    -0.943000000
C     5.855000000    -0.911000000     0.037000000
O     6.604000000    -1.160000000     1.112000000
C     6.467000000    -0.570000000     2.375000000
C     7.339000000     0.471000000     2.749000000
H     8.177000000     0.614000000     2.073000000
C     7.144000000     1.066000000     4.037000000
H     7.873000000     1.751000000     4.462000000
C     6.101000000     0.693000000     4.819000000
H     6.001000000     1.177000000     5.788000000
C     5.232000000    -0.330000000     4.454000000
C     5.421000000    -0.968000000     3.269000000
H     4.710000000    -1.748000000     3.009000000
C     0.931000000    -1.014000000    -0.895000000
H     1.481000000    -1.384000000    -1.756000000
C     0.442000000     0.307000000    -0.743000000
H     0.848000000     1.069000000    -1.404000000
C    -0.509000000     0.527000000     0.201000000
H    -0.883000000     1.526000000     0.259000000
C    -0.911000000    -0.454000000     1.169000000
H    -1.670000000    -0.141000000     1.881000000
C    -0.364000000    -1.737000000     1.016000000
H    -0.656000000    -2.554000000     1.672000000
C     0.469000000    -2.017000000    -0.046000000
C     1.087000000    -3.442000000    -0.252000000
O     0.985000000    -4.321000000     0.636000000
O     1.639000000    -3.731000000    -1.252000000
O     4.124000000    -4.788000000    -1.517000000
H     4.414000000    -4.459000000    -2.367000000
H     3.245000000    -4.425000000    -1.407000000
O     3.710000000    -5.124000000     1.168000000
H     2.793000000    -4.974000000     0.935000000
H     4.174000000    -5.111000000     0.331000000
O     4.113000000    -4.997000000     3.632000000
H     3.279000000    -5.036000000     4.101000000
H     3.876000000    -5.103000000     2.711000000
O     1.366000000    -5.838000000    -2.851000000
H     0.956000000    -6.343000000    -2.149000000
H     1.465000000    -4.958000000    -2.488000000
O    -1.314000000    -6.581000000     2.559000000
H    -1.944000000    -7.220000000     2.226000000
H    -1.686000000    -6.289000000     3.391000000
O    -0.082000000    -6.601000000     0.052000000
H    -0.338000000    -6.844000000     0.941000000
H     0.467000000    -5.824000000     0.165000000
O     1.584000000    -8.568000000    -0.713000000
H     1.320000000    -9.406000000    -0.335000000
H     0.882000000    -7.964000000    -0.471000000
O     3.513000000    -6.011000000    -5.413000000
H     2.740000000    -6.092000000    -4.854000000
H     3.203000000    -6.253000000    -6.286000000
O     5.448000000    -7.282000000    -3.902000000
H     5.068000000    -6.670000000    -4.531000000
H     4.719000000    -7.520000000    -3.329000000
O     4.900000000    -8.847000000    -0.323000000
H     4.951000000    -8.609000000    -1.249000000
H     3.996000000    -8.651000000    -0.075000000
O     6.559000000    -3.981000000     3.624000000
H     5.644000000    -4.262000000     3.621000000
H     6.831000000    -4.039000000     2.708000000
O    -2.869000000    -8.767000000     1.561000000
H    -3.289000000    -8.329000000     0.821000000
H    -2.153000000    -9.266000000     1.170000000
O     3.330000000    -8.475000000    -2.829000000
H     2.720000000    -8.951000000    -3.393000000
H     2.783000000    -8.132000000    -2.122000000
O     0.351000000    -8.576000000    -3.796000000
H     0.663000000    -7.692000000    -3.603000000
H    -0.501000000    -8.629000000    -3.363000000
O    -1.820000000    -8.353000000    -2.247000000
H    -1.506000000    -7.768000000    -1.557000000
H    -2.773000000    -8.345000000    -2.152000000
O     5.064000000    -7.537000000     2.792000000
H     5.774000000    -7.025000000     3.179000000
H     4.595000000    -6.914000000     2.236000000
O    -4.289000000    -7.536000000    -0.811000000
H    -4.971000000    -6.920000000    -0.543000000
H    -4.767000000    -8.309000000    -1.109000000
O     0.610000000    -4.806000000     3.191000000
H     0.701000000    -4.355000000     2.351000000
H     0.087000000    -5.582000000     2.991000000
O     1.584000000    -5.056000000     5.718000000
H     1.275000000    -5.051000000     4.812000000
H     0.988000000    -4.464000000     6.177000000
