215
-1471.28401
C     4.228000000     1.849000000    -2.922000000
H     4.320000000     0.848000000    -3.335000000
C     4.166000000     2.054000000    -1.546000000
C     4.075000000     3.335000000    -1.070000000
H     4.164000000     3.488000000     0.002000000
C     4.171000000     0.888000000    -0.564000000
O     4.822000000    -0.186000000    -1.148000000
H     3.130000000     0.624000000    -0.329000000
O     4.843000000     1.222000000     0.754000000
C     4.282000000     0.700000000     1.869000000
C     3.409000000     1.523000000     2.535000000
H     3.286000000     2.585000000     2.336000000
C     2.664000000     1.050000000     3.642000000
O     1.754000000     1.976000000     4.226000000
C     2.805000000    -0.264000000     4.073000000
C     1.963000000    -0.820000000     5.186000000
H     2.434000000    -1.678000000     5.670000000
C     0.597000000    -1.251000000     4.676000000
C     0.394000000    -2.627000000     4.352000000
H     1.214000000    -3.340000000     4.327000000
H     1.839000000     0.019000000     5.874000000
C     3.544000000    -1.157000000     3.302000000
H     3.597000000    -2.225000000     3.501000000
C     4.285000000    -0.699000000     2.155000000
C     5.182000000    -1.681000000     1.352000000
H     5.290000000    -2.500000000     2.066000000
H     6.173000000    -1.293000000     1.106000000
C     4.379000000    -2.201000000     0.113000000
C     3.654000000    -3.416000000     0.197000000
H     3.625000000    -4.016000000     1.104000000
C     4.214000000    -1.404000000    -1.047000000
C     3.492000000    -1.862000000    -2.122000000
H     3.283000000    -1.222000000    -2.976000000
C     2.745000000    -3.052000000    -2.023000000
O     1.832000000    -3.265000000    -3.010000000
C     0.432000000    -2.966000000    -2.638000000
C    -0.268000000    -2.199000000    -3.787000000
C    -1.647000000    -2.020000000    -3.775000000
H    -2.241000000    -2.475000000    -2.986000000
C     0.494000000    -1.552000000    -4.796000000
H     1.528000000    -1.856000000    -4.934000000
O    -0.252000000    -4.204000000    -2.359000000
H     0.576000000    -2.388000000    -1.713000000
C     2.901000000    -3.832000000    -0.880000000
C     2.049000000    -5.101000000    -0.815000000
H     2.482000000    -5.774000000    -0.072000000
H     2.010000000    -5.646000000    -1.760000000
C     0.688000000    -4.823000000    -0.239000000
C     0.484000000    -4.985000000     1.182000000
H     1.286000000    -5.232000000     1.873000000
C    -0.439000000    -4.455000000    -1.031000000
C    -1.676000000    -4.227000000    -0.488000000
H    -2.473000000    -3.916000000    -1.159000000
C    -1.811000000    -4.393000000     0.889000000
O    -2.985000000    -4.016000000     1.372000000
C    -3.123000000    -2.606000000     1.738000000
C    -4.369000000    -1.908000000     1.256000000
C    -5.042000000    -2.430000000     0.194000000
H    -4.715000000    -3.378000000    -0.227000000
C    -4.649000000    -0.620000000     1.735000000
H    -4.045000000    -0.148000000     2.506000000
O    -3.072000000    -2.499000000     3.164000000
H    -2.195000000    -2.152000000     1.361000000
C    -0.771000000    -4.707000000     1.733000000
C    -0.956000000    -4.576000000     3.254000000
H    -0.199000000    -5.233000000     3.688000000
H    -1.972000000    -4.884000000     3.511000000
C    -0.797000000    -3.125000000     3.780000000
C    -1.873000000    -2.206000000     3.757000000
C    -1.611000000    -0.891000000     4.062000000
H    -2.378000000    -0.165000000     3.807000000
C    -0.460000000    -0.379000000     4.550000000
O    -0.331000000     0.927000000     4.927000000
C     0.365000000     1.810000000     3.941000000
H     0.272000000     1.361000000     2.941000000
C    -0.245000000     3.206000000     3.732000000
C     0.327000000     4.155000000     2.904000000
H     1.302000000     3.918000000     2.486000000
C    -1.514000000     3.442000000     4.281000000
H    -1.937000000     2.743000000     4.998000000
C    -2.257000000     4.578000000     3.855000000
O    -3.615000000     4.759000000     4.150000000
C    -1.631000000     5.496000000     2.973000000
H    -2.180000000     6.395000000     2.703000000
C    -0.359000000     5.306000000     2.499000000
O     0.168000000     6.102000000     1.510000000
C     1.539000000     6.084000000     1.306000000
C     2.053000000     5.860000000     0.041000000
H     1.430000000     5.614000000    -0.815000000
C     2.394000000     6.455000000     2.381000000
H     2.067000000     6.681000000     3.392000000
C     3.754000000     6.596000000     2.152000000
H     4.410000000     7.023000000     2.906000000
C     4.241000000     6.354000000     0.867000000
H     5.294000000     6.534000000     0.666000000
C     3.450000000     5.971000000    -0.199000000
O     3.942000000     5.759000000    -1.447000000
C     3.979000000     4.450000000    -1.902000000
C     3.937000000     4.236000000    -3.284000000
H     3.858000000     5.087000000    -3.955000000
C     4.165000000     2.927000000    -3.766000000
O     4.222000000     2.737000000    -5.129000000
C     3.792000000     1.570000000    -5.794000000
C     2.472000000     1.170000000    -5.732000000
H     1.735000000     1.710000000    -5.144000000
C     4.721000000     0.874000000    -6.560000000
H     5.740000000     1.241000000    -6.459000000
C     4.271000000    -0.047000000    -7.473000000
H     4.859000000    -0.458000000    -8.290000000
C     2.884000000    -0.375000000    -7.559000000
H     2.603000000    -0.966000000    -8.427000000
C     1.955000000     0.183000000    -6.648000000
O     0.625000000    -0.221000000    -6.752000000
C    -0.127000000    -0.804000000    -5.764000000
C    -1.509000000    -0.781000000    -5.779000000
H    -1.981000000    -0.249000000    -6.601000000
C    -2.294000000    -1.342000000    -4.822000000
O    -3.589000000    -1.015000000    -4.883000000
C    -4.539000000    -1.874000000    -4.424000000
C    -5.257000000    -1.512000000    -3.258000000
H    -5.025000000    -0.622000000    -2.680000000
C    -4.802000000    -3.060000000    -5.055000000
H    -4.374000000    -3.321000000    -6.020000000
C    -5.765000000    -3.967000000    -4.589000000
H    -6.002000000    -4.931000000    -5.033000000
C    -6.397000000    -3.633000000    -3.401000000
H    -7.087000000    -4.365000000    -2.990000000
C    -6.121000000    -2.443000000    -2.744000000
O    -6.722000000    -2.147000000    -1.547000000
C    -6.091000000    -1.673000000    -0.426000000
C    -6.425000000    -0.418000000     0.043000000
H    -7.226000000     0.151000000    -0.422000000
C    -5.748000000     0.108000000     1.175000000
O    -6.044000000     1.409000000     1.655000000
C    -5.700000000     1.945000000     2.875000000
C    -6.326000000     1.609000000     4.082000000
H    -7.028000000     0.782000000     4.150000000
C    -5.893000000     2.171000000     5.278000000
H    -6.356000000     1.763000000     6.173000000
C    -4.990000000     3.254000000     5.350000000
H    -4.595000000     3.738000000     6.240000000
C    -4.494000000     3.718000000     4.159000000
C    -4.808000000     3.019000000     2.916000000
H    -4.265000000     3.254000000     2.004000000
C    -2.089000000     0.539000000    -0.339000000
H    -3.059000000     0.201000000    -0.695000000
C    -1.005000000    -0.369000000    -0.367000000
H    -1.101000000    -1.450000000    -0.419000000
C     0.263000000     0.196000000    -0.204000000
H     1.060000000    -0.493000000    -0.231000000
C     0.504000000     1.527000000    -0.049000000
H     1.508000000     1.881000000     0.171000000
C    -0.534000000     2.467000000     0.048000000
H    -0.401000000     3.535000000     0.201000000
C    -1.829000000     1.955000000    -0.155000000
C    -2.978000000     3.030000000    -0.282000000
O    -2.694000000     4.200000000    -0.025000000
O    -4.094000000     2.811000000    -0.642000000
O    -1.383000000     8.826000000    -0.080000000
H    -0.669000000     8.972000000    -0.700000000
H    -0.947000000     8.574000000     0.734000000
O     0.280000000     7.158000000    -2.717000000
H     0.242000000     7.701000000    -3.505000000
H     0.384000000     7.783000000    -2.000000000
O    -8.156000000     0.458000000    -2.541000000
H    -7.404000000     1.014000000    -2.339000000
H    -7.917000000     0.017000000    -3.356000000
O    -3.368000000     7.977000000    -1.852000000
H    -2.685000000     8.323000000    -1.278000000
H    -2.992000000     7.175000000    -2.215000000
O    -3.162000000     6.281000000    -4.793000000
H    -4.116000000     6.338000000    -4.845000000
H    -2.996000000     5.800000000    -3.982000000
O    -4.266000000     6.484000000     0.282000000
H    -4.256000000     6.963000000    -0.547000000
H    -3.616000000     5.791000000     0.167000000
O    -3.606000000     2.502000000    -6.775000000
H    -3.347000000     3.417000000    -6.883000000
H    -3.656000000     2.378000000    -5.827000000
O    -6.109000000     8.273000000    -1.440000000
H    -6.456000000     9.150000000    -1.274000000
H    -5.195000000     8.419000000    -1.684000000
O    -7.035000000     4.017000000    -3.974000000
H    -7.250000000     4.611000000    -3.255000000
H    -6.804000000     3.194000000    -3.543000000
O    -6.009000000     4.496000000    -0.011000000
H    -5.486000000     3.705000000    -0.139000000
H    -5.434000000     5.210000000    -0.286000000
O    -5.800000000     1.974000000    -2.497000000
H    -5.522000000     1.950000000    -1.581000000
H    -4.984000000     2.046000000    -2.992000000
O    -7.061000000     5.124000000     3.021000000
H    -6.475000000     4.419000000     2.743000000
H    -6.920000000     5.820000000     2.379000000
O    -8.720000000     3.390000000     0.701000000
H    -7.841000000     3.725000000     0.525000000
H    -8.586000000     2.468000000     0.920000000
O    -7.666000000     5.974000000    -1.609000000
H    -7.259000000     6.840000000    -1.636000000
H    -7.399000000     5.609000000    -0.765000000
O    -1.894000000     5.618000000    -2.125000000
H    -2.266000000     5.046000000    -1.453000000
H    -1.175000000     6.070000000    -1.684000000
O    -3.525000000     1.705000000    -4.160000000
H    -3.301000000     0.845000000    -4.515000000
H    -2.888000000     1.847000000    -3.459000000
O    -6.371000000     7.363000000     1.508000000
H    -6.449000000     8.150000000     0.968000000
H    -5.629000000     6.889000000     1.135000000
O    -1.061000000     1.864000000    -3.180000000
H    -0.280000000     2.385000000    -3.367000000
H    -0.960000000     1.602000000    -2.265000000
O    -0.019000000     4.626000000    -4.137000000
H     0.334000000     5.371000000    -3.650000000
H    -0.946000000     4.603000000    -3.900000000
