215
-1424.79181
C    -4.210000000    -2.229000000     1.083000000
H    -4.523000000    -1.812000000     0.129000000
C    -3.954000000    -1.408000000     2.126000000
C    -3.492000000    -1.970000000     3.310000000
H    -3.141000000    -1.331000000     4.116000000
C    -3.915000000     0.088000000     1.968000000
O    -4.947000000     0.615000000     1.044000000
H    -3.021000000     0.312000000     1.366000000
O    -3.733000000     0.854000000     3.168000000
C    -2.746000000     1.820000000     3.331000000
C    -1.632000000     1.522000000     4.109000000
H    -1.668000000     0.715000000     4.835000000
C    -0.511000000     2.345000000     4.079000000
O     0.667000000     1.981000000     4.750000000
C    -0.689000000     3.571000000     3.374000000
C     0.529000000     4.542000000     3.290000000
H     0.198000000     5.580000000     3.223000000
C     1.607000000     4.248000000     2.200000000
C     1.605000000     4.841000000     0.942000000
H     0.806000000     5.502000000     0.617000000
H     1.002000000     4.548000000     4.274000000
C    -1.855000000     3.929000000     2.640000000
H    -1.932000000     4.852000000     2.073000000
C    -2.871000000     2.998000000     2.678000000
C    -4.148000000     3.251000000     1.918000000
H    -4.307000000     4.330000000     1.871000000
H    -5.027000000     2.834000000     2.414000000
C    -4.035000000     2.798000000     0.504000000
C    -3.478000000     3.606000000    -0.466000000
H    -3.093000000     4.573000000    -0.152000000
C    -4.480000000     1.470000000     0.143000000
C    -4.365000000     1.006000000    -1.122000000
H    -4.598000000    -0.011000000    -1.426000000
C    -3.823000000     1.892000000    -2.096000000
O    -3.615000000     1.394000000    -3.348000000
C    -2.283000000     0.885000000    -3.672000000
C    -2.123000000    -0.478000000    -4.333000000
C    -1.160000000    -0.739000000    -5.295000000
H    -0.356000000    -0.058000000    -5.565000000
C    -2.961000000    -1.498000000    -3.914000000
H    -3.805000000    -1.271000000    -3.268000000
O    -1.678000000     1.880000000    -4.472000000
H    -1.742000000     0.794000000    -2.719000000
C    -3.318000000     3.193000000    -1.800000000
C    -2.648000000     4.163000000    -2.843000000
H    -2.735000000     5.206000000    -2.530000000
H    -3.280000000     4.142000000    -3.733000000
C    -1.112000000     3.859000000    -3.074000000
C    -0.156000000     4.634000000    -2.358000000
H    -0.442000000     5.458000000    -1.709000000
C    -0.770000000     2.739000000    -3.871000000
C     0.503000000     2.234000000    -3.720000000
H     0.792000000     1.299000000    -4.194000000
C     1.454000000     2.910000000    -2.953000000
O     2.728000000     2.475000000    -3.000000000
C     3.115000000     1.808000000    -1.757000000
C     3.852000000     0.471000000    -2.120000000
C     3.686000000    -0.192000000    -3.329000000
H     2.951000000     0.191000000    -4.033000000
C     4.606000000    -0.228000000    -1.137000000
H     4.884000000     0.190000000    -0.172000000
O     3.985000000     2.773000000    -0.964000000
H     2.246000000     1.593000000    -1.118000000
C     1.109000000     4.096000000    -2.303000000
C     2.160000000     4.854000000    -1.506000000
H     1.788000000     5.879000000    -1.445000000
H     3.084000000     4.935000000    -2.081000000
C     2.326000000     4.271000000    -0.139000000
C     3.254000000     3.366000000     0.104000000
C     3.417000000     2.828000000     1.409000000
H     4.184000000     2.070000000     1.543000000
C     2.583000000     3.220000000     2.457000000
O     2.660000000     2.484000000     3.640000000
C     1.671000000     1.454000000     3.873000000
H     1.157000000     1.229000000     2.928000000
C     2.333000000     0.189000000     4.402000000
C     1.540000000    -0.889000000     4.896000000
H     0.472000000    -0.691000000     4.944000000
C     3.673000000    -0.182000000     4.267000000
H     4.387000000     0.540000000     3.877000000
C     4.181000000    -1.468000000     4.572000000
O     5.532000000    -1.692000000     4.370000000
C     3.330000000    -2.495000000     4.952000000
H     3.613000000    -3.542000000     4.886000000
C     1.997000000    -2.202000000     5.143000000
O     1.198000000    -3.265000000     5.367000000
C    -0.020000000    -3.108000000     5.918000000
C    -1.091000000    -3.509000000     5.172000000
H    -0.964000000    -3.794000000     4.131000000
C    -0.221000000    -2.662000000     7.202000000
H     0.685000000    -2.270000000     7.658000000
C    -1.478000000    -2.438000000     7.699000000
H    -1.680000000    -2.002000000     8.674000000
C    -2.566000000    -2.967000000     6.983000000
H    -3.614000000    -2.956000000     7.274000000
C    -2.372000000    -3.333000000     5.679000000
O    -3.431000000    -3.818000000     4.901000000
C    -3.657000000    -3.327000000     3.599000000
C    -4.026000000    -4.195000000     2.589000000
H    -4.149000000    -5.261000000     2.764000000
C    -4.277000000    -3.634000000     1.364000000
O    -4.664000000    -4.530000000     0.465000000
C    -5.075000000    -4.291000000    -0.784000000
C    -4.188000000    -4.187000000    -1.857000000
H    -3.147000000    -4.358000000    -1.595000000
C    -6.482000000    -4.223000000    -1.062000000
H    -7.211000000    -4.491000000    -0.302000000
C    -6.940000000    -3.877000000    -2.334000000
H    -8.001000000    -3.882000000    -2.571000000
C    -6.002000000    -3.688000000    -3.353000000
H    -6.348000000    -3.545000000    -4.374000000
C    -4.628000000    -3.900000000    -3.118000000
O    -3.724000000    -3.784000000    -4.243000000
C    -2.813000000    -2.822000000    -4.495000000
C    -1.858000000    -3.100000000    -5.449000000
H    -1.745000000    -4.034000000    -5.994000000
C    -1.020000000    -2.004000000    -5.827000000
O    -0.127000000    -2.184000000    -6.876000000
C     1.177000000    -1.662000000    -6.913000000
C     2.019000000    -1.901000000    -5.846000000
H     1.610000000    -2.349000000    -4.944000000
C     1.756000000    -1.193000000    -8.094000000
H     1.153000000    -0.881000000    -8.944000000
C     3.130000000    -1.029000000    -8.209000000
H     3.665000000    -0.677000000    -9.088000000
C     3.957000000    -1.278000000    -7.120000000
H     5.026000000    -1.079000000    -7.129000000
C     3.382000000    -1.676000000    -5.897000000
O     4.268000000    -2.037000000    -4.877000000
C     4.389000000    -1.388000000    -3.614000000
C     5.189000000    -1.993000000    -2.594000000
H     5.818000000    -2.869000000    -2.728000000
C     5.245000000    -1.399000000    -1.364000000
O     6.102000000    -2.091000000    -0.488000000
C     6.490000000    -1.530000000     0.767000000
C     7.588000000    -0.701000000     0.892000000
H     8.218000000    -0.523000000     0.023000000
C     7.859000000    -0.144000000     2.121000000
H     8.774000000     0.433000000     2.227000000
C     7.129000000    -0.458000000     3.287000000
H     7.282000000    -0.010000000     4.265000000
C     6.131000000    -1.432000000     3.171000000
C     5.845000000    -1.962000000     1.946000000
H     5.079000000    -2.732000000     1.898000000
C    -0.167000000    -2.292000000    -1.075000000
H    -0.028000000    -3.044000000    -1.848000000
C    -0.013000000    -1.019000000    -1.400000000
H     0.109000000    -0.663000000    -2.420000000
C    -0.166000000    -0.016000000    -0.425000000
H    -0.243000000     1.071000000    -0.716000000
C    -0.336000000    -0.308000000     0.927000000
H    -0.235000000     0.487000000     1.662000000
C    -0.408000000    -1.672000000     1.290000000
H    -0.548000000    -1.905000000     2.343000000
C    -0.394000000    -2.664000000     0.289000000
C    -0.598000000    -4.186000000     0.609000000
O    -0.880000000    -4.649000000     1.710000000
O    -0.286000000    -5.010000000    -0.203000000
O     4.863000000    -5.525000000     0.402000000
H     4.942000000    -6.068000000     1.187000000
H     3.956000000    -5.219000000     0.414000000
O    -2.011000000    -8.188000000    -3.670000000
H    -2.449000000    -8.780000000    -3.059000000
H    -2.720000000    -7.830000000    -4.206000000
O     0.690000000    -5.389000000    -2.556000000
H     1.440000000    -4.795000000    -2.518000000
H     0.316000000    -5.360000000    -1.675000000
O     1.644000000    -9.808000000     1.778000000
H     1.660000000   -10.093000000     2.692000000
H     0.741000000    -9.956000000     1.497000000
O     3.661000000    -5.057000000     3.116000000
H     3.881000000    -5.975000000     3.271000000
H     2.819000000    -4.934000000     3.555000000
O    -3.378000000    -9.298000000     2.264000000
H    -3.604000000    -8.371000000     2.178000000
H    -3.865000000    -9.593000000     3.033000000
O    -0.942000000    -8.296000000     3.819000000
H    -0.730000000    -8.478000000     4.735000000
H    -1.098000000    -9.158000000     3.433000000
O    -0.107000000    -6.628000000    -5.031000000
H    -0.804000000    -7.255000000    -4.839000000
H    -0.012000000    -6.120000000    -4.225000000
O    -2.286000000    -6.828000000     2.030000000
H    -1.831000000    -5.997000000     1.896000000
H    -1.822000000    -7.241000000     2.759000000
O     0.303000000    -7.597000000    -0.072000000
H     1.113000000    -7.622000000     0.438000000
H     0.013000000    -6.686000000    -0.016000000
O     1.789000000    -7.070000000     5.742000000
H     1.063000000    -7.571000000     6.115000000
H     1.438000000    -6.712000000     4.927000000
O     0.521000000    -6.154000000     3.293000000
H    -0.134000000    -5.597000000     2.871000000
H     0.064000000    -6.978000000     3.458000000
O    -2.808000000    -7.537000000    -0.622000000
H    -2.910000000    -7.383000000     0.317000000
H    -1.884000000    -7.357000000    -0.796000000
O     2.511000000    -7.876000000    -2.794000000
H     2.512000000    -8.771000000    -2.454000000
H     1.804000000    -7.440000000    -2.320000000
O    -1.243000000   -10.172000000     0.739000000
H    -0.907000000    -9.501000000     0.144000000
H    -1.887000000    -9.712000000     1.278000000
O     3.696000000    -5.715000000    -4.120000000
H     3.225000000    -6.450000000    -3.727000000
H     3.318000000    -4.939000000    -3.706000000
O     2.569000000    -3.570000000    -1.882000000
H     2.362000000    -3.977000000    -1.040000000
H     2.874000000    -2.692000000    -1.655000000
O    -5.265000000    -8.784000000    -0.856000000
H    -5.143000000    -9.718000000    -1.025000000
H    -4.417000000    -8.391000000    -1.060000000
O     2.335000000    -4.933000000     0.593000000
H     2.304000000    -4.982000000     1.549000000
H     1.436000000    -5.111000000     0.315000000
