215
-1426.50175
C    -4.569000000    -2.419000000     0.772000000
H    -4.375000000    -2.135000000    -0.259000000
C    -4.489000000    -1.470000000     1.781000000
C    -4.544000000    -1.887000000     3.113000000
H    -4.475000000    -1.128000000     3.888000000
C    -4.065000000    -0.017000000     1.428000000
O    -4.859000000     0.457000000     0.325000000
H    -3.044000000    -0.112000000     1.030000000
O    -4.079000000     0.897000000     2.561000000
C    -3.133000000     1.838000000     2.633000000
C    -2.161000000     1.655000000     3.596000000
H    -2.159000000     0.715000000     4.142000000
C    -1.156000000     2.572000000     3.856000000
O    -0.020000000     2.276000000     4.576000000
C    -1.123000000     3.736000000     3.073000000
C     0.077000000     4.684000000     3.049000000
H    -0.214000000     5.689000000     2.736000000
C     1.141000000     4.323000000     2.062000000
C     1.133000000     4.782000000     0.738000000
H     0.368000000     5.512000000     0.484000000
H     0.570000000     4.722000000     4.023000000
C    -2.143000000     3.992000000     2.185000000
H    -2.240000000     4.878000000     1.564000000
C    -3.160000000     3.049000000     1.924000000
C    -4.286000000     3.279000000     0.886000000
H    -4.408000000     4.336000000     0.641000000
H    -5.211000000     2.885000000     1.312000000
C    -3.885000000     2.596000000    -0.389000000
C    -3.249000000     3.243000000    -1.378000000
H    -2.803000000     4.205000000    -1.137000000
C    -4.261000000     1.233000000    -0.629000000
C    -4.050000000     0.688000000    -1.889000000
H    -4.275000000    -0.352000000    -2.112000000
C    -3.429000000     1.376000000    -2.930000000
O    -2.958000000     0.743000000    -4.034000000
C    -1.562000000     0.361000000    -4.073000000
C    -1.278000000    -1.118000000    -4.333000000
C     0.053000000    -1.598000000    -4.537000000
H     0.862000000    -0.875000000    -4.606000000
C    -2.276000000    -2.110000000    -4.147000000
H    -3.321000000    -1.861000000    -3.981000000
O    -0.664000000     1.268000000    -4.863000000
H    -1.268000000     0.331000000    -3.014000000
C    -3.002000000     2.670000000    -2.627000000
C    -2.327000000     3.569000000    -3.727000000
H    -2.600000000     4.608000000    -3.527000000
H    -2.689000000     3.265000000    -4.711000000
C    -0.754000000     3.374000000    -3.602000000
C    -0.075000000     4.244000000    -2.771000000
H    -0.542000000     5.063000000    -2.230000000
C    -0.031000000     2.290000000    -4.145000000
C     1.320000000     2.115000000    -3.947000000
H     1.813000000     1.217000000    -4.310000000
C     2.018000000     3.034000000    -3.203000000
O     3.338000000     2.667000000    -2.819000000
C     3.638000000     2.005000000    -1.636000000
C     4.692000000     0.943000000    -1.885000000
C     5.041000000     0.509000000    -3.215000000
H     4.466000000     0.855000000    -4.070000000
C     5.442000000     0.474000000    -0.782000000
H     5.245000000     0.724000000     0.258000000
O     4.041000000     2.978000000    -0.572000000
H     2.865000000     1.325000000    -1.247000000
C     1.342000000     4.053000000    -2.510000000
C     2.146000000     4.972000000    -1.530000000
H     1.725000000     5.978000000    -1.475000000
H     3.194000000     5.084000000    -1.815000000
C     2.127000000     4.363000000    -0.153000000
C     3.111000000     3.467000000     0.247000000
C     3.053000000     2.942000000     1.559000000
H     3.785000000     2.216000000     1.903000000
C     2.118000000     3.342000000     2.436000000
O     2.154000000     2.567000000     3.567000000
C     1.021000000     1.669000000     3.803000000
H     0.561000000     1.517000000     2.816000000
C     1.535000000     0.377000000     4.332000000
C     0.601000000    -0.397000000     5.107000000
H    -0.418000000    -0.037000000     5.230000000
C     2.780000000    -0.106000000     4.026000000
H     3.446000000     0.512000000     3.430000000
C     3.110000000    -1.397000000     4.431000000
O     4.366000000    -2.091000000     4.241000000
C     2.165000000    -2.195000000     5.093000000
H     2.457000000    -3.186000000     5.432000000
C     0.923000000    -1.662000000     5.559000000
O     0.094000000    -2.451000000     6.218000000
C    -1.285000000    -2.253000000     6.216000000
C    -2.157000000    -2.994000000     5.442000000
H    -1.762000000    -3.706000000     4.722000000
C    -1.876000000    -1.394000000     7.184000000
H    -1.297000000    -0.636000000     7.705000000
C    -3.299000000    -1.217000000     7.281000000
H    -3.586000000    -0.391000000     7.926000000
C    -4.140000000    -2.042000000     6.514000000
H    -5.213000000    -1.917000000     6.635000000
C    -3.529000000    -2.865000000     5.590000000
O    -4.308000000    -3.590000000     4.734000000
C    -4.556000000    -3.212000000     3.436000000
C    -4.643000000    -4.174000000     2.450000000
H    -4.637000000    -5.227000000     2.718000000
C    -4.682000000    -3.762000000     1.162000000
O    -4.625000000    -4.771000000     0.224000000
C    -4.869000000    -4.595000000    -1.083000000
C    -3.805000000    -4.453000000    -1.966000000
H    -2.836000000    -4.335000000    -1.487000000
C    -6.137000000    -4.452000000    -1.550000000
H    -6.922000000    -4.627000000    -0.819000000
C    -6.442000000    -4.357000000    -2.910000000
H    -7.471000000    -4.417000000    -3.256000000
C    -5.349000000    -4.436000000    -3.877000000
H    -5.470000000    -4.361000000    -4.955000000
C    -4.012000000    -4.379000000    -3.361000000
O    -2.930000000    -4.413000000    -4.186000000
C    -1.953000000    -3.459000000    -4.149000000
C    -0.619000000    -3.891000000    -4.255000000
H    -0.420000000    -4.956000000    -4.343000000
C     0.360000000    -2.934000000    -4.518000000
O     1.626000000    -3.330000000    -4.466000000
C     2.615000000    -2.678000000    -5.188000000
C     3.789000000    -2.292000000    -4.498000000
H     4.012000000    -2.575000000    -3.473000000
C     2.523000000    -2.457000000    -6.534000000
H     1.632000000    -2.734000000    -7.091000000
C     3.484000000    -1.700000000    -7.193000000
H     3.339000000    -1.289000000    -8.189000000
C     4.674000000    -1.277000000    -6.541000000
H     5.417000000    -0.664000000    -7.045000000
C     4.769000000    -1.533000000    -5.205000000
O     5.959000000    -1.159000000    -4.537000000
C     5.866000000    -0.561000000    -3.368000000
C     6.483000000    -1.184000000    -2.211000000
H     6.990000000    -2.142000000    -2.295000000
C     6.268000000    -0.648000000    -0.931000000
O     6.722000000    -1.425000000     0.142000000
C     6.598000000    -1.142000000     1.461000000
C     7.262000000    -0.032000000     1.934000000
H     7.854000000     0.613000000     1.290000000
C     6.909000000     0.477000000     3.243000000
H     7.393000000     1.352000000     3.670000000
C     5.982000000    -0.260000000     3.977000000
H     5.675000000     0.134000000     4.943000000
C     5.307000000    -1.370000000     3.504000000
C     5.696000000    -1.855000000     2.260000000
H     5.309000000    -2.785000000     1.853000000
C     1.735000000    -1.282000000    -0.598000000
H     2.493000000    -1.375000000    -1.371000000
C     0.788000000    -0.253000000    -0.690000000
H     0.927000000     0.528000000    -1.432000000
C    -0.287000000    -0.115000000     0.189000000
H    -0.940000000     0.672000000     0.165000000
C    -0.407000000    -1.167000000     1.083000000
H    -1.218000000    -1.160000000     1.807000000
C     0.496000000    -2.194000000     1.216000000
H     0.420000000    -2.905000000     2.035000000
C     1.567000000    -2.327000000     0.354000000
C     2.571000000    -3.471000000     0.619000000
O     2.150000000    -4.410000000     1.333000000
O     3.538000000    -3.642000000    -0.077000000
O     5.372000000    -7.616000000    -1.790000000
H     6.161000000    -7.489000000    -1.263000000
H     5.026000000    -8.461000000    -1.504000000
O     8.399000000    -5.250000000     2.602000000
H     8.837000000    -4.400000000     2.569000000
H     9.089000000    -5.883000000     2.402000000
O     4.501000000    -6.745000000    -4.301000000
H     4.430000000    -5.800000000    -4.173000000
H     4.758000000    -7.084000000    -3.443000000
O     5.059000000    -4.943000000    -2.041000000
H     4.567000000    -4.422000000    -1.407000000
H     4.800000000    -5.847000000    -1.861000000
O     6.820000000    -5.589000000     4.688000000
H     7.200000000    -5.580000000     3.809000000
H     6.143000000    -6.263000000     4.649000000
O    -0.962000000    -8.347000000     2.399000000
H    -0.326000000    -9.008000000     2.672000000
H    -0.458000000    -7.535000000     2.351000000
O     0.671000000    -8.917000000    -1.875000000
H     1.296000000    -8.766000000    -1.165000000
H     0.414000000    -9.834000000    -1.777000000
O     0.028000000    -5.362000000    -0.015000000
H     0.335000000    -6.240000000     0.212000000
H     0.645000000    -4.773000000     0.419000000
O     0.941000000    -5.005000000     6.766000000
H     1.797000000    -4.642000000     6.992000000
H     0.445000000    -4.257000000     6.431000000
O    -0.882000000    -6.709000000    -2.243000000
H    -0.412000000    -7.526000000    -2.074000000
H    -0.492000000    -6.079000000    -1.637000000
O     1.413000000    -6.410000000     2.628000000
H     1.636000000    -6.111000000     3.510000000
H     1.671000000    -5.686000000     2.057000000
O     2.655000000    -9.889000000     2.271000000
H     2.556000000    -9.290000000     3.011000000
H     3.421000000    -9.562000000     1.799000000
O     4.359000000    -6.043000000     0.741000000
H     3.942000000    -5.181000000     0.743000000
H     5.241000000    -5.881000000     0.407000000
O     7.291000000    -6.066000000     0.209000000
H     7.388000000    -7.007000000     0.350000000
H     7.700000000    -5.665000000     0.976000000
O     4.952000000    -8.368000000     2.026000000
H     4.691000000    -7.587000000     1.536000000
H     5.562000000    -8.822000000     1.444000000
O     8.199000000    -4.779000000    -2.153000000
H     8.259000000    -4.723000000    -1.200000000
H     7.259000000    -4.781000000    -2.335000000
O     1.907000000    -7.617000000     0.244000000
H     2.675000000    -7.083000000     0.043000000
H     1.775000000    -7.502000000     1.185000000
O     4.637000000    -7.464000000     4.570000000
H     4.930000000    -7.765000000     3.709000000
H     4.204000000    -6.628000000     4.396000000
O     3.630000000    -4.904000000     3.844000000
H     3.445000000    -4.851000000     2.907000000
H     3.662000000    -3.992000000     4.134000000
