215
-1468.51684
C    -5.391000000    -1.743000000     1.689000000
H    -5.890000000    -1.212000000     0.882000000
C    -4.419000000    -1.052000000     2.455000000
C    -3.896000000    -1.681000000     3.597000000
H    -3.282000000    -1.106000000     4.285000000
C    -3.893000000     0.348000000     2.042000000
O    -4.914000000     0.947000000     1.185000000
H    -2.920000000     0.211000000     1.549000000
O    -3.571000000     1.165000000     3.147000000
C    -2.611000000     2.151000000     3.143000000
C    -1.463000000     1.857000000     3.832000000
H    -1.474000000     0.876000000     4.300000000
C    -0.329000000     2.672000000     3.793000000
O     0.863000000     2.276000000     4.334000000
C    -0.352000000     3.835000000     3.010000000
C     0.914000000     4.656000000     2.800000000
H     0.767000000     5.737000000     2.745000000
C     1.831000000     4.171000000     1.679000000
C     1.688000000     4.654000000     0.373000000
H     0.784000000     5.218000000     0.162000000
H     1.424000000     4.595000000     3.764000000
C    -1.566000000     4.195000000     2.368000000
H    -1.509000000     5.089000000     1.753000000
C    -2.670000000     3.303000000     2.373000000
C    -4.012000000     3.680000000     1.660000000
H    -4.066000000     4.762000000     1.519000000
H    -4.871000000     3.336000000     2.239000000
C    -4.087000000     3.021000000     0.245000000
C    -3.519000000     3.712000000    -0.843000000
H    -3.266000000     4.768000000    -0.788000000
C    -4.569000000     1.667000000     0.069000000
C    -4.406000000     1.030000000    -1.168000000
H    -4.623000000    -0.034000000    -1.215000000
C    -3.714000000     1.684000000    -2.178000000
O    -3.415000000     0.826000000    -3.185000000
C    -2.127000000     0.358000000    -3.350000000
C    -2.136000000    -1.112000000    -3.699000000
C    -1.074000000    -1.621000000    -4.523000000
H    -0.293000000    -0.971000000    -4.909000000
C    -2.945000000    -2.031000000    -3.088000000
H    -3.741000000    -1.736000000    -2.409000000
O    -1.402000000     1.254000000    -4.310000000
H    -1.525000000     0.405000000    -2.431000000
C    -3.235000000     3.032000000    -2.025000000
C    -2.513000000     3.746000000    -3.157000000
H    -2.598000000     4.803000000    -2.896000000
H    -3.024000000     3.478000000    -4.084000000
C    -1.027000000     3.444000000    -3.297000000
C    -0.053000000     4.227000000    -2.685000000
H    -0.347000000     5.188000000    -2.271000000
C    -0.573000000     2.248000000    -3.856000000
C     0.791000000     1.923000000    -3.995000000
H     1.166000000     1.021000000    -4.471000000
C     1.755000000     2.751000000    -3.417000000
O     3.075000000     2.254000000    -3.367000000
C     3.558000000     1.734000000    -2.146000000
C     4.476000000     0.538000000    -2.456000000
C     4.239000000    -0.305000000    -3.523000000
H     3.567000000     0.052000000    -4.300000000
C     5.447000000     0.134000000    -1.584000000
H     5.745000000     0.759000000    -0.745000000
O     4.224000000     2.674000000    -1.341000000
H     2.773000000     1.308000000    -1.503000000
C     1.322000000     3.940000000    -2.786000000
C     2.295000000     4.867000000    -2.009000000
H     1.919000000     5.886000000    -1.895000000
H     3.228000000     4.861000000    -2.577000000
C     2.517000000     4.286000000    -0.612000000
C     3.492000000     3.277000000    -0.336000000
C     3.604000000     2.750000000     0.919000000
H     4.361000000     1.982000000     1.060000000
C     2.814000000     3.176000000     1.942000000
O     2.887000000     2.427000000     3.099000000
C     1.799000000     1.540000000     3.370000000
H     1.289000000     1.320000000     2.421000000
C     2.236000000     0.173000000     3.878000000
C     1.488000000    -0.597000000     4.742000000
H     0.472000000    -0.305000000     4.993000000
C     3.478000000    -0.261000000     3.414000000
H     4.070000000     0.365000000     2.751000000
C     4.059000000    -1.451000000     3.875000000
O     5.294000000    -1.916000000     3.543000000
C     3.297000000    -2.276000000     4.640000000
H     3.749000000    -3.230000000     4.899000000
C     2.007000000    -1.831000000     5.128000000
O     1.222000000    -2.717000000     5.827000000
C    -0.148000000    -2.654000000     6.121000000
C    -1.077000000    -3.298000000     5.315000000
H    -0.721000000    -4.019000000     4.584000000
C    -0.496000000    -1.829000000     7.246000000
H     0.343000000    -1.416000000     7.798000000
C    -1.873000000    -1.772000000     7.591000000
H    -2.172000000    -1.307000000     8.527000000
C    -2.805000000    -2.429000000     6.737000000
H    -3.813000000    -2.415000000     7.143000000
C    -2.404000000    -3.137000000     5.589000000
O    -3.452000000    -3.668000000     4.808000000
C    -4.076000000    -3.035000000     3.794000000
C    -4.971000000    -3.710000000     2.988000000
H    -5.147000000    -4.767000000     3.172000000
C    -5.600000000    -3.078000000     1.919000000
O    -6.440000000    -3.777000000     1.129000000
C    -6.316000000    -3.832000000    -0.227000000
C    -4.986000000    -3.949000000    -0.762000000
H    -4.121000000    -3.926000000    -0.103000000
C    -7.473000000    -3.824000000    -1.069000000
H    -8.526000000    -3.809000000    -0.798000000
C    -7.283000000    -3.759000000    -2.446000000
H    -8.098000000    -3.709000000    -3.164000000
C    -5.989000000    -3.757000000    -2.991000000
H    -5.747000000    -3.732000000    -4.051000000
C    -4.871000000    -4.010000000    -2.151000000
O    -3.635000000    -4.262000000    -2.685000000
C    -2.840000000    -3.385000000    -3.353000000
C    -1.851000000    -3.892000000    -4.205000000
H    -1.978000000    -4.940000000    -4.464000000
C    -1.064000000    -2.997000000    -4.829000000
O    -0.124000000    -3.575000000    -5.680000000
C     1.098000000    -2.847000000    -5.988000000
C     2.109000000    -2.868000000    -5.071000000
H     2.085000000    -3.395000000    -4.121000000
C     1.281000000    -2.296000000    -7.264000000
H     0.552000000    -2.378000000    -8.066000000
C     2.472000000    -1.554000000    -7.606000000
H     2.629000000    -1.150000000    -8.603000000
C     3.464000000    -1.462000000    -6.631000000
H     4.447000000    -1.093000000    -6.911000000
C     3.286000000    -2.230000000    -5.456000000
O     4.360000000    -2.433000000    -4.632000000
C     4.827000000    -1.521000000    -3.691000000
C     5.864000000    -1.879000000    -2.837000000
H     6.339000000    -2.856000000    -2.886000000
C     6.147000000    -1.061000000    -1.778000000
O     7.035000000    -1.523000000    -0.876000000
C     7.132000000    -1.077000000     0.459000000
C     8.069000000    -0.129000000     0.922000000
H     8.822000000     0.247000000     0.235000000
C     8.137000000     0.210000000     2.300000000
H     8.880000000     0.931000000     2.630000000
C     7.131000000    -0.324000000     3.182000000
H     7.014000000     0.153000000     4.152000000
C     6.137000000    -1.211000000     2.699000000
C     6.221000000    -1.662000000     1.351000000
H     5.491000000    -2.371000000     0.969000000
C     1.272000000    -2.381000000    -1.042000000
H     1.750000000    -3.141000000    -1.656000000
C     1.000000000    -1.104000000    -1.539000000
H     1.158000000    -0.864000000    -2.587000000
C     0.534000000    -0.038000000    -0.744000000
H     0.336000000     1.006000000    -1.192000000
C     0.259000000    -0.302000000     0.595000000
H    -0.163000000     0.484000000     1.215000000
C     0.591000000    -1.482000000     1.136000000
H     0.350000000    -1.698000000     2.174000000
C     1.083000000    -2.503000000     0.343000000
C     1.251000000    -3.897000000     0.892000000
O     0.602000000    -4.200000000     1.871000000
O     1.906000000    -4.782000000     0.325000000
O     2.335000000    -8.900000000     4.300000000
H     1.655000000    -9.551000000     4.471000000
H     2.171000000    -8.208000000     4.941000000
O     5.853000000    -7.259000000    -0.592000000
H     4.979000000    -6.920000000    -0.784000000
H     5.816000000    -8.178000000    -0.856000000
O     0.782000000    -6.481000000    -2.935000000
H     1.081000000    -7.219000000    -2.404000000
H     0.934000000    -5.713000000    -2.386000000
O     5.974000000    -4.739000000     4.184000000
H     5.976000000    -3.867000000     3.787000000
H     6.283000000    -5.319000000     3.488000000
O    -0.776000000    -7.862000000     3.473000000
H    -0.613000000    -7.607000000     2.565000000
H    -1.028000000    -8.784000000     3.422000000
O     1.545000000    -9.572000000     1.667000000
H     2.295000000    -9.882000000     1.159000000
H     1.891000000    -9.444000000     2.550000000
O    -0.024000000    -7.063000000     0.924000000
H     0.521000000    -7.850000000     0.897000000
H     0.581000000    -6.361000000     1.163000000
O    -2.284000000    -7.372000000    -3.296000000
H    -3.079000000    -7.565000000    -2.799000000
H    -1.740000000    -6.869000000    -2.691000000
O    -2.027000000    -5.334000000     1.868000000
H    -1.538000000    -4.567000000     2.167000000
H    -1.414000000    -5.803000000     1.302000000
O    -3.384000000    -6.649000000     4.850000000
H    -2.620000000    -6.831000000     4.303000000
H    -3.532000000    -5.709000000     4.749000000
O     1.900000000    -5.762000000     3.624000000
H     1.407000000    -5.940000000     4.425000000
H     1.293000000    -5.268000000     3.073000000
O     2.789000000    -7.020000000    -0.441000000
H     2.382000000    -6.165000000    -0.299000000
H     3.162000000    -7.253000000     0.409000000
O     6.969000000    -6.548000000     2.314000000
H     7.549000000    -7.293000000     2.155000000
H     6.220000000    -6.700000000     1.738000000
O     4.235000000    -7.901000000     2.099000000
H     4.299000000    -6.951000000     1.998000000
H     3.967000000    -8.027000000     3.009000000
O    -4.296000000    -6.606000000     1.135000000
H    -3.549000000    -6.075000000     1.411000000
H    -3.937000000    -7.199000000     0.475000000
O     2.003000000    -9.048000000    -2.160000000
H     2.586000000    -8.303000000    -2.012000000
H     2.544000000    -9.689000000    -2.621000000
O     4.262000000    -6.689000000     4.973000000
H     4.898000000    -6.039000000     4.675000000
H     3.433000000    -6.408000000     4.587000000
O     3.940000000    -5.210000000     1.955000000
H     3.546000000    -4.935000000     1.128000000
H     3.206000000    -5.252000000     2.568000000
O     0.517000000    -7.195000000     5.819000000
H    -0.135000000    -6.989000000     6.488000000
H     0.136000000    -7.923000000     5.329000000
