215
-1481.84465
C    -3.693000000    -2.337000000     1.274000000
H    -3.794000000    -2.071000000     0.224000000
C    -3.718000000    -1.355000000     2.300000000
C    -3.539000000    -1.704000000     3.623000000
H    -3.567000000    -0.977000000     4.430000000
C    -3.767000000     0.096000000     1.889000000
O    -4.832000000     0.378000000     0.965000000
H    -2.819000000     0.249000000     1.352000000
O    -3.909000000     1.065000000     2.931000000
C    -3.035000000     2.093000000     3.033000000
C    -1.972000000     1.837000000     3.799000000
H    -1.894000000     1.081000000     4.576000000
C    -0.931000000     2.756000000     3.797000000
O     0.267000000     2.444000000     4.358000000
C    -1.009000000     3.791000000     2.875000000
C     0.186000000     4.699000000     2.694000000
H    -0.107000000     5.716000000     2.425000000
C     1.101000000     4.169000000     1.629000000
C     1.009000000     4.642000000     0.350000000
H     0.263000000     5.410000000     0.160000000
H     0.733000000     4.896000000     3.618000000
C    -2.157000000     4.078000000     2.152000000
H    -2.223000000     4.943000000     1.498000000
C    -3.217000000     3.183000000     2.233000000
C    -4.457000000     3.344000000     1.309000000
H    -4.813000000     4.368000000     1.185000000
H    -5.323000000     3.014000000     1.888000000
C    -4.257000000     2.524000000     0.015000000
C    -3.685000000     3.211000000    -1.049000000
H    -3.576000000     4.282000000    -0.897000000
C    -4.589000000     1.159000000    -0.132000000
C    -4.292000000     0.421000000    -1.300000000
H    -4.327000000    -0.666000000    -1.309000000
C    -3.755000000     1.167000000    -2.355000000
O    -3.508000000     0.500000000    -3.529000000
C    -2.125000000     0.147000000    -3.772000000
C    -1.924000000    -1.217000000    -4.310000000
C    -0.765000000    -1.570000000    -5.055000000
H    -0.056000000    -0.843000000    -5.442000000
C    -2.899000000    -2.163000000    -4.038000000
H    -3.757000000    -1.889000000    -3.429000000
O    -1.611000000     1.097000000    -4.779000000
H    -1.601000000     0.221000000    -2.807000000
C    -3.414000000     2.571000000    -2.262000000
C    -2.983000000     3.334000000    -3.479000000
H    -3.302000000     4.376000000    -3.418000000
H    -3.511000000     2.922000000    -4.341000000
C    -1.439000000     3.184000000    -3.604000000
C    -0.567000000     4.031000000    -2.922000000
H    -1.051000000     4.832000000    -2.370000000
C    -0.878000000     2.045000000    -4.244000000
C     0.491000000     1.804000000    -4.151000000
H     0.926000000     0.898000000    -4.565000000
C     1.358000000     2.604000000    -3.442000000
O     2.640000000     2.143000000    -3.275000000
C     3.101000000     1.633000000    -1.970000000
C     4.126000000     0.521000000    -2.262000000
C     3.944000000    -0.367000000    -3.330000000
H     3.127000000    -0.209000000    -4.029000000
C     5.135000000     0.369000000    -1.312000000
H     5.229000000     1.138000000    -0.550000000
O     3.694000000     2.768000000    -1.340000000
H     2.334000000     1.279000000    -1.265000000
C     0.826000000     3.727000000    -2.845000000
C     1.735000000     4.709000000    -1.999000000
H     1.284000000     5.703000000    -2.019000000
H     2.717000000     4.676000000    -2.475000000
C     1.929000000     4.231000000    -0.622000000
C     2.906000000     3.325000000    -0.389000000
C     2.958000000     2.830000000     0.904000000
H     3.680000000     2.049000000     1.125000000
C     2.026000000     3.175000000     1.880000000
O     2.200000000     2.639000000     3.149000000
C     1.122000000     1.720000000     3.541000000
H     0.636000000     1.313000000     2.642000000
C     1.792000000     0.564000000     4.258000000
C     1.361000000    -0.124000000     5.386000000
H     0.431000000     0.204000000     5.843000000
C     2.874000000     0.037000000     3.571000000
H     3.201000000     0.424000000     2.609000000
C     3.522000000    -1.081000000     4.010000000
O     4.544000000    -1.616000000     3.304000000
C     3.058000000    -1.865000000     5.057000000
H     3.519000000    -2.806000000     5.348000000
C     1.991000000    -1.338000000     5.773000000
O     1.455000000    -2.128000000     6.802000000
C     0.091000000    -2.258000000     6.996000000
C    -0.736000000    -2.686000000     5.937000000
H    -0.219000000    -2.802000000     4.988000000
C    -0.429000000    -1.923000000     8.197000000
H     0.215000000    -1.554000000     8.991000000
C    -1.815000000    -1.944000000     8.449000000
H    -2.191000000    -1.606000000     9.411000000
C    -2.657000000    -2.503000000     7.479000000
H    -3.737000000    -2.572000000     7.585000000
C    -2.125000000    -2.908000000     6.220000000
O    -3.081000000    -3.383000000     5.325000000
C    -3.300000000    -3.015000000     4.000000000
C    -3.367000000    -4.035000000     3.001000000
H    -3.264000000    -5.062000000     3.340000000
C    -3.540000000    -3.670000000     1.631000000
O    -3.563000000    -4.621000000     0.640000000
C    -4.281000000    -4.478000000    -0.541000000
C    -3.579000000    -4.636000000    -1.742000000
H    -2.524000000    -4.899000000    -1.760000000
C    -5.627000000    -4.154000000    -0.495000000
H    -6.155000000    -4.109000000     0.454000000
C    -6.318000000    -3.984000000    -1.672000000
H    -7.385000000    -3.780000000    -1.714000000
C    -5.621000000    -4.133000000    -2.890000000
H    -6.180000000    -4.004000000    -3.814000000
C    -4.244000000    -4.459000000    -2.904000000
O    -3.545000000    -4.528000000    -4.069000000
C    -2.725000000    -3.469000000    -4.553000000
C    -1.572000000    -3.834000000    -5.249000000
H    -1.360000000    -4.834000000    -5.620000000
C    -0.612000000    -2.867000000    -5.500000000
O     0.458000000    -3.275000000    -6.233000000
C     1.665000000    -2.653000000    -6.321000000
C     2.655000000    -2.951000000    -5.375000000
H     2.458000000    -3.698000000    -4.610000000
C     1.972000000    -1.656000000    -7.290000000
H     1.211000000    -1.583000000    -8.063000000
C     3.238000000    -0.998000000    -7.309000000
H     3.490000000    -0.311000000    -8.113000000
C     4.170000000    -1.296000000    -6.316000000
H     5.150000000    -0.828000000    -6.377000000
C     3.812000000    -2.210000000    -5.380000000
O     4.769000000    -2.411000000    -4.424000000
C     4.897000000    -1.425000000    -3.464000000
C     5.937000000    -1.488000000    -2.505000000
H     6.759000000    -2.180000000    -2.669000000
C     6.042000000    -0.662000000    -1.438000000
O     7.112000000    -0.767000000    -0.592000000
C     6.898000000    -0.447000000     0.660000000
C     7.518000000     0.651000000     1.326000000
H     8.156000000     1.374000000     0.824000000
C     7.120000000     0.947000000     2.650000000
H     7.710000000     1.741000000     3.101000000
C     6.212000000     0.167000000     3.331000000
H     6.024000000     0.441000000     4.367000000
C     5.645000000    -0.919000000     2.737000000
C     5.970000000    -1.212000000     1.376000000
H     5.552000000    -2.088000000     0.887000000
C     0.193000000    -2.294000000    -1.653000000
H     0.481000000    -2.843000000    -2.547000000
C     0.446000000    -0.956000000    -1.606000000
H     0.879000000    -0.435000000    -2.456000000
C     0.029000000    -0.204000000    -0.539000000
H     0.268000000     0.908000000    -0.531000000
C    -0.453000000    -0.796000000     0.604000000
H    -0.589000000    -0.215000000     1.513000000
C    -0.520000000    -2.220000000     0.679000000
H    -0.844000000    -2.771000000     1.558000000
C    -0.184000000    -2.975000000    -0.484000000
C    -0.231000000    -4.449000000    -0.457000000
O    -0.664000000    -5.038000000     0.529000000
O     0.286000000    -5.077000000    -1.361000000
O     3.448000000    -6.226000000     1.240000000
H     2.606000000    -6.587000000     0.962000000
H     4.055000000    -6.964000000     1.184000000
O     1.777000000   -10.070000000    -0.287000000
H     1.555000000    -9.141000000    -0.352000000
H     0.935000000   -10.522000000    -0.337000000
O    -2.584000000    -6.886000000    -4.607000000
H    -1.931000000    -6.875000000    -3.908000000
H    -3.051000000    -6.055000000    -4.513000000
O     2.904000000    -5.402000000    -2.117000000
H     3.556000000    -5.214000000    -1.442000000
H     2.111000000    -4.960000000    -1.814000000
O     1.739000000    -3.343000000     2.753000000
H     1.101000000    -3.958000000     3.115000000
H     1.716000000    -2.594000000     3.348000000
O    -4.455000000    -7.017000000     2.076000000
H    -3.683000000    -7.000000000     1.512000000
H    -4.411000000    -7.866000000     2.517000000
O     2.665000000    -6.731000000    -6.046000000
H     2.102000000    -6.945000000    -5.302000000
H     3.234000000    -6.033000000    -5.722000000
O    -0.022000000    -8.680000000     2.092000000
H    -0.375000000    -8.490000000     2.962000000
H     0.436000000    -9.514000000     2.196000000
O     1.423000000    -7.296000000    -3.561000000
H     0.509000000    -7.348000000    -3.281000000
H     1.838000000    -6.723000000    -2.916000000
O    -2.217000000    -7.223000000     0.652000000
H    -1.992000000    -6.309000000     0.477000000
H    -1.708000000    -7.450000000     1.430000000
O     1.128000000    -7.401000000     0.228000000
H     0.605000000    -7.693000000     0.975000000
H     0.695000000    -6.601000000    -0.069000000
O    -0.926000000    -7.734000000     4.616000000
H    -0.301000000    -8.139000000     5.218000000
H    -1.733000000    -7.658000000     5.125000000
O     3.256000000    -5.534000000     4.328000000
H     2.834000000    -5.242000000     3.520000000
H     3.339000000    -6.482000000     4.226000000
O    -0.305000000    -4.947000000     3.306000000
H    -0.431000000    -5.081000000     2.367000000
H    -0.568000000    -5.777000000     3.704000000
O    -0.876000000    -7.231000000    -2.133000000
H    -0.459000000    -6.541000000    -1.617000000
H    -1.473000000    -7.661000000    -1.520000000
O    -3.699000000    -9.173000000    -3.237000000
H    -4.647000000    -9.295000000    -3.289000000
H    -3.509000000    -8.490000000    -3.880000000
O    -3.370000000    -9.790000000    -0.412000000
H    -3.200000000    -8.905000000    -0.089000000
H    -3.667000000    -9.664000000    -1.313000000
O     4.850000000    -4.628000000    -0.332000000
H     4.479000000    -5.156000000     0.376000000
H     4.400000000    -3.786000000    -0.263000000
O     3.090000000    -2.726000000     0.435000000
H     2.612000000    -2.975000000     1.226000000
H     2.625000000    -1.956000000     0.107000000
