215
-1428.75574
C    -4.342000000    -2.258000000     1.670000000
H    -4.637000000    -2.117000000     0.633000000
C    -3.780000000    -1.235000000     2.436000000
C    -3.342000000    -1.521000000     3.763000000
H    -2.996000000    -0.793000000     4.493000000
C    -3.637000000     0.148000000     1.883000000
O    -4.703000000     0.543000000     0.991000000
H    -2.642000000     0.167000000     1.414000000
O    -3.541000000     1.084000000     2.919000000
C    -2.613000000     2.088000000     2.918000000
C    -1.393000000     1.908000000     3.675000000
H    -1.202000000     0.995000000     4.233000000
C    -0.455000000     2.835000000     3.575000000
O     0.738000000     2.471000000     4.164000000
C    -0.642000000     4.006000000     2.823000000
C     0.472000000     4.980000000     2.506000000
H     0.007000000     5.882000000     2.103000000
C     1.477000000     4.476000000     1.437000000
C     1.244000000     4.789000000     0.079000000
H     0.361000000     5.383000000    -0.143000000
H     0.849000000     5.174000000     3.513000000
C    -1.858000000     4.198000000     2.086000000
H    -1.892000000     4.949000000     1.301000000
C    -2.860000000     3.261000000     2.169000000
C    -4.096000000     3.348000000     1.285000000
H    -4.390000000     4.385000000     1.109000000
H    -4.998000000     3.002000000     1.793000000
C    -4.011000000     2.576000000    -0.042000000
C    -3.596000000     3.283000000    -1.183000000
H    -3.362000000     4.345000000    -1.174000000
C    -4.261000000     1.168000000    -0.122000000
C    -4.286000000     0.529000000    -1.318000000
H    -4.413000000    -0.548000000    -1.384000000
C    -3.927000000     1.192000000    -2.462000000
O    -3.791000000     0.463000000    -3.560000000
C    -2.492000000    -0.060000000    -3.903000000
C    -2.390000000    -1.580000000    -4.121000000
C    -1.211000000    -2.105000000    -4.561000000
H    -0.423000000    -1.363000000    -4.660000000
C    -3.469000000    -2.441000000    -3.832000000
H    -4.433000000    -2.023000000    -3.553000000
O    -1.755000000     0.758000000    -4.723000000
H    -1.915000000    -0.081000000    -2.967000000
C    -3.487000000     2.552000000    -2.400000000
C    -2.980000000     3.170000000    -3.621000000
H    -3.028000000     4.261000000    -3.613000000
H    -3.488000000     2.938000000    -4.559000000
C    -1.431000000     2.925000000    -3.691000000
C    -0.567000000     3.849000000    -3.069000000
H    -0.956000000     4.749000000    -2.601000000
C    -0.892000000     1.754000000    -4.253000000
C     0.495000000     1.551000000    -4.322000000
H     0.956000000     0.714000000    -4.838000000
C     1.334000000     2.469000000    -3.647000000
O     2.683000000     2.231000000    -3.562000000
C     3.170000000     1.853000000    -2.258000000
C     4.120000000     0.655000000    -2.336000000
C     3.983000000    -0.249000000    -3.439000000
H     3.129000000    -0.248000000    -4.112000000
C     5.021000000     0.242000000    -1.326000000
H     4.972000000     0.722000000    -0.352000000
O     3.878000000     2.917000000    -1.623000000
H     2.323000000     1.709000000    -1.572000000
C     0.803000000     3.640000000    -3.055000000
C     1.627000000     4.697000000    -2.384000000
H     1.209000000     5.703000000    -2.455000000
H     2.515000000     4.824000000    -3.006000000
C     2.024000000     4.390000000    -0.971000000
C     3.140000000     3.541000000    -0.630000000
C     3.297000000     3.115000000     0.699000000
H     4.051000000     2.366000000     0.930000000
C     2.539000000     3.615000000     1.744000000
O     2.686000000     2.969000000     2.948000000
C     1.729000000     1.961000000     3.275000000
H     1.257000000     1.733000000     2.307000000
C     2.374000000     0.708000000     3.929000000
C     1.723000000    -0.158000000     4.849000000
H     0.684000000     0.080000000     5.062000000
C     3.722000000     0.457000000     3.669000000
H     4.262000000     1.119000000     2.998000000
C     4.404000000    -0.476000000     4.428000000
O     5.754000000    -0.648000000     4.201000000
C     3.737000000    -1.400000000     5.166000000
H     4.211000000    -2.272000000     5.609000000
C     2.300000000    -1.307000000     5.327000000
O     1.569000000    -2.249000000     6.043000000
C     0.203000000    -2.061000000     6.420000000
C    -0.853000000    -2.807000000     5.857000000
H    -0.635000000    -3.554000000     5.098000000
C    -0.083000000    -1.070000000     7.339000000
H     0.702000000    -0.500000000     7.831000000
C    -1.428000000    -0.767000000     7.624000000
H    -1.687000000     0.034000000     8.313000000
C    -2.429000000    -1.485000000     7.090000000
H    -3.424000000    -1.169000000     7.393000000
C    -2.159000000    -2.468000000     6.194000000
O    -3.142000000    -3.135000000     5.532000000
C    -3.503000000    -2.844000000     4.262000000
C    -4.129000000    -3.802000000     3.530000000
H    -4.346000000    -4.773000000     3.967000000
C    -4.416000000    -3.524000000     2.197000000
O    -4.954000000    -4.583000000     1.442000000
C    -5.443000000    -4.416000000     0.114000000
C    -4.573000000    -4.531000000    -0.931000000
H    -3.511000000    -4.609000000    -0.712000000
C    -6.817000000    -4.133000000    -0.084000000
H    -7.450000000    -4.099000000     0.799000000
C    -7.321000000    -4.092000000    -1.391000000
H    -8.352000000    -3.889000000    -1.669000000
C    -6.393000000    -4.132000000    -2.494000000
H    -6.757000000    -4.002000000    -3.510000000
C    -5.024000000    -4.375000000    -2.228000000
O    -4.228000000    -4.651000000    -3.361000000
C    -3.293000000    -3.816000000    -3.858000000
C    -2.010000000    -4.279000000    -4.135000000
H    -1.917000000    -5.361000000    -4.107000000
C    -0.992000000    -3.451000000    -4.639000000
O     0.224000000    -3.961000000    -5.098000000
C     1.382000000    -3.322000000    -5.574000000
C     2.443000000    -3.087000000    -4.793000000
H     2.348000000    -3.389000000    -3.753000000
C     1.380000000    -3.019000000    -6.937000000
H     0.457000000    -3.151000000    -7.495000000
C     2.508000000    -2.483000000    -7.533000000
H     2.503000000    -2.225000000    -8.589000000
C     3.623000000    -2.249000000    -6.692000000
H     4.499000000    -1.807000000    -7.161000000
C     3.607000000    -2.445000000    -5.353000000
O     4.737000000    -2.259000000    -4.611000000
C     4.838000000    -1.317000000    -3.575000000
C     5.797000000    -1.612000000    -2.637000000
H     6.556000000    -2.387000000    -2.704000000
C     5.834000000    -0.900000000    -1.456000000
O     6.613000000    -1.274000000    -0.447000000
C     6.838000000    -0.602000000     0.737000000
C     8.038000000     0.098000000     0.842000000
H     8.645000000     0.251000000    -0.047000000
C     8.433000000     0.632000000     2.017000000
H     9.345000000     1.216000000     2.114000000
C     7.664000000     0.371000000     3.147000000
H     7.940000000     0.651000000     4.160000000
C     6.538000000    -0.412000000     3.100000000
C     6.085000000    -0.853000000     1.864000000
H     5.239000000    -1.534000000     1.841000000
C    -0.983000000    -3.070000000    -0.054000000
H    -1.158000000    -3.916000000    -0.714000000
C    -1.101000000    -1.758000000    -0.547000000
H    -1.595000000    -1.591000000    -1.501000000
C    -0.620000000    -0.686000000     0.110000000
H    -0.648000000     0.312000000    -0.403000000
C    -0.397000000    -0.836000000     1.518000000
H    -0.253000000     0.002000000     2.195000000
C    -0.366000000    -2.115000000     2.016000000
H    -0.072000000    -2.251000000     3.054000000
C    -0.546000000    -3.216000000     1.232000000
C    -0.345000000    -4.659000000     1.744000000
O     0.244000000    -4.800000000     2.823000000
O    -0.689000000    -5.593000000     1.051000000
O     2.229000000    -7.942000000     3.633000000
H     1.731000000    -8.600000000     4.117000000
H     2.170000000    -7.153000000     4.171000000
O     4.484000000    -5.107000000    -1.013000000
H     3.647000000    -5.390000000    -0.644000000
H     4.946000000    -4.704000000    -0.278000000
O    -0.404000000    -6.921000000    -1.145000000
H     0.536000000    -7.080000000    -1.227000000
H    -0.484000000    -6.350000000    -0.381000000
O    -3.418000000    -9.203000000     2.678000000
H    -2.517000000    -9.142000000     2.994000000
H    -3.956000000    -9.052000000     3.455000000
O    -0.946000000    -8.045000000     2.474000000
H    -0.701000000    -7.222000000     2.051000000
H    -0.159000000    -8.312000000     2.950000000
O    -1.424000000    -8.079000000    -3.463000000
H    -2.192000000    -8.527000000    -3.107000000
H    -1.070000000    -7.587000000    -2.722000000
O    -1.939000000    -5.889000000     4.072000000
H    -1.334000000    -5.395000000     3.519000000
H    -1.884000000    -6.787000000     3.745000000
O    -2.232000000    -8.464000000     0.054000000
H    -1.808000000    -7.773000000    -0.456000000
H    -1.952000000    -8.302000000     0.955000000
O    -3.505000000    -6.208000000     6.278000000
H    -2.889000000    -6.170000000     5.546000000
H    -3.732000000    -5.294000000     6.448000000
O     1.394000000    -5.930000000     5.039000000
H     0.738000000    -6.188000000     5.687000000
H     0.940000000    -5.304000000     4.475000000
O     2.371000000    -5.724000000     0.680000000
H     1.518000000    -5.698000000     1.114000000
H     2.971000000    -6.053000000     1.349000000
O     5.205000000    -4.018000000     1.531000000
H     4.964000000    -4.831000000     1.974000000
H     4.452000000    -3.441000000     1.664000000
O     4.435000000    -6.554000000     2.672000000
H     3.812000000    -7.096000000     3.157000000
H     5.274000000    -6.705000000     3.107000000
O    -0.582000000    -6.950000000     6.994000000
H    -0.654000000    -7.719000000     6.430000000
H    -1.483000000    -6.648000000     7.104000000
O     0.710000000   -11.039000000     0.734000000
H     0.688000000   -11.635000000     1.482000000
H     0.957000000   -10.193000000     1.108000000
O    -5.151000000    -7.464000000     0.841000000
H    -4.977000000    -6.528000000     0.736000000
H    -4.331000000    -7.824000000     1.178000000
O     2.406000000    -7.455000000    -1.596000000
H     2.471000000    -6.690000000    -1.024000000
H     2.723000000    -8.182000000    -1.061000000
O     3.956000000    -6.098000000     5.937000000
H     3.982000000    -6.179000000     6.891000000
H     3.040000000    -5.903000000     5.739000000
O     2.987000000    -3.057000000     2.485000000
H     2.432000000    -3.836000000     2.524000000
H     2.398000000    -2.333000000     2.695000000
