215
-1473.36471
C    -3.788000000    -1.965000000     1.041000000
H    -3.606000000    -1.805000000    -0.019000000
C    -3.955000000    -0.913000000     1.916000000
C    -3.950000000    -1.122000000     3.351000000
H    -3.935000000    -0.272000000     4.028000000
C    -3.868000000     0.521000000     1.350000000
O    -4.863000000     0.591000000     0.257000000
H    -2.864000000     0.769000000     0.974000000
O    -4.217000000     1.494000000     2.365000000
C    -3.274000000     2.499000000     2.471000000
C    -2.366000000     2.373000000     3.520000000
H    -2.498000000     1.678000000     4.345000000
C    -1.168000000     3.099000000     3.398000000
O    -0.044000000     2.734000000     4.127000000
C    -1.037000000     4.030000000     2.400000000
C     0.224000000     4.920000000     2.351000000
H    -0.233000000     5.897000000     2.183000000
C     1.289000000     4.327000000     1.504000000
C     1.267000000     4.656000000     0.186000000
H     0.565000000     5.422000000    -0.135000000
H     0.673000000     5.055000000     3.337000000
C    -2.037000000     4.263000000     1.456000000
H    -2.050000000     5.063000000     0.719000000
C    -3.180000000     3.489000000     1.445000000
C    -4.164000000     3.616000000     0.350000000
H    -4.139000000     4.666000000     0.051000000
H    -5.191000000     3.456000000     0.686000000
C    -3.918000000     2.659000000    -0.801000000
C    -3.333000000     3.188000000    -1.982000000
H    -2.924000000     4.192000000    -1.907000000
C    -4.338000000     1.293000000    -0.804000000
C    -4.078000000     0.557000000    -1.946000000
H    -4.392000000    -0.476000000    -2.069000000
C    -3.356000000     1.101000000    -3.040000000
O    -2.999000000     0.210000000    -3.998000000
C    -1.589000000    -0.146000000    -3.965000000
C    -1.394000000    -1.583000000    -4.252000000
C    -0.162000000    -2.048000000    -4.728000000
H     0.756000000    -1.468000000    -4.753000000
C    -2.432000000    -2.542000000    -3.987000000
H    -3.371000000    -2.141000000    -3.613000000
O    -0.872000000     0.633000000    -4.946000000
H    -1.194000000     0.035000000    -2.954000000
C    -3.038000000     2.448000000    -3.066000000
C    -2.172000000     3.094000000    -4.135000000
H    -2.280000000     4.177000000    -4.225000000
H    -2.533000000     2.621000000    -5.051000000
C    -0.746000000     2.836000000    -3.810000000
C     0.026000000     3.679000000    -3.050000000
H    -0.485000000     4.548000000    -2.643000000
C    -0.148000000     1.737000000    -4.417000000
C     1.228000000     1.630000000    -4.365000000
H     1.664000000     0.728000000    -4.786000000
C     2.031000000     2.537000000    -3.663000000
O     3.316000000     2.139000000    -3.339000000
C     3.524000000     1.591000000    -1.961000000
C     4.385000000     0.341000000    -1.915000000
C     4.487000000    -0.336000000    -3.102000000
H     4.192000000     0.133000000    -4.037000000
C     4.956000000    -0.228000000    -0.765000000
H     4.739000000     0.293000000     0.164000000
O     3.949000000     2.600000000    -0.977000000
H     2.507000000     1.284000000    -1.676000000
C     1.379000000     3.545000000    -2.902000000
C     2.205000000     4.558000000    -2.127000000
H     1.787000000     5.553000000    -2.292000000
H     3.238000000     4.633000000    -2.475000000
C     2.206000000     4.141000000    -0.640000000
C     3.113000000     3.234000000    -0.091000000
C     3.064000000     2.801000000     1.222000000
H     3.663000000     1.965000000     1.572000000
C     2.123000000     3.326000000     2.007000000
O     2.021000000     2.759000000     3.253000000
C     0.904000000     1.865000000     3.533000000
H     0.545000000     1.472000000     2.571000000
C     1.351000000     0.719000000     4.443000000
C     0.536000000     0.304000000     5.488000000
H    -0.420000000     0.769000000     5.714000000
C     2.606000000     0.116000000     4.197000000
H     3.124000000     0.570000000     3.356000000
C     3.101000000    -0.875000000     5.078000000
O     4.326000000    -1.488000000     4.948000000
C     2.311000000    -1.269000000     6.176000000
H     2.731000000    -1.990000000     6.872000000
C     1.048000000    -0.676000000     6.398000000
O     0.221000000    -1.268000000     7.325000000
C    -1.159000000    -1.293000000     7.158000000
C    -1.826000000    -2.069000000     6.227000000
H    -1.223000000    -2.566000000     5.471000000
C    -1.818000000    -0.556000000     8.084000000
H    -1.354000000     0.082000000     8.833000000
C    -3.231000000    -0.590000000     8.067000000
H    -3.708000000    -0.040000000     8.874000000
C    -3.942000000    -1.391000000     7.120000000
H    -5.019000000    -1.338000000     7.256000000
C    -3.239000000    -2.133000000     6.175000000
O    -3.918000000    -2.792000000     5.173000000
C    -3.904000000    -2.455000000     3.861000000
C    -3.897000000    -3.497000000     2.942000000
H    -3.876000000    -4.538000000     3.254000000
C    -3.773000000    -3.228000000     1.583000000
O    -3.630000000    -4.352000000     0.811000000
C    -4.227000000    -4.348000000    -0.420000000
C    -3.432000000    -4.564000000    -1.564000000
H    -2.352000000    -4.679000000    -1.512000000
C    -5.607000000    -4.062000000    -0.461000000
H    -6.181000000    -3.932000000     0.453000000
C    -6.218000000    -4.148000000    -1.725000000
H    -7.245000000    -3.806000000    -1.823000000
C    -5.432000000    -4.318000000    -2.908000000
H    -5.873000000    -4.357000000    -3.901000000
C    -4.034000000    -4.536000000    -2.821000000
O    -3.238000000    -4.759000000    -3.934000000
C    -2.294000000    -3.834000000    -4.362000000
C    -1.085000000    -4.248000000    -4.920000000
H    -1.102000000    -5.291000000    -5.225000000
C    -0.016000000    -3.407000000    -5.125000000
O     1.112000000    -3.967000000    -5.694000000
C     2.291000000    -3.252000000    -5.987000000
C     3.238000000    -2.983000000    -5.000000000
H     3.238000000    -3.512000000    -4.051000000
C     2.530000000    -2.658000000    -7.251000000
H     1.682000000    -2.564000000    -7.924000000
C     3.663000000    -1.914000000    -7.577000000
H     3.772000000    -1.527000000    -8.587000000
C     4.681000000    -1.849000000    -6.590000000
H     5.583000000    -1.286000000    -6.815000000
C     4.431000000    -2.332000000    -5.318000000
O     5.358000000    -2.204000000    -4.330000000
C     5.137000000    -1.552000000    -3.113000000
C     5.690000000    -2.124000000    -1.987000000
H     6.105000000    -3.128000000    -2.022000000
C     5.576000000    -1.506000000    -0.755000000
O     6.020000000    -2.141000000     0.470000000
C     6.040000000    -1.526000000     1.671000000
C     7.042000000    -0.622000000     1.912000000
H     7.824000000    -0.433000000     1.180000000
C     7.088000000     0.087000000     3.070000000
H     7.883000000     0.825000000     3.135000000
C     6.095000000    -0.076000000     4.039000000
H     6.130000000     0.548000000     4.928000000
C     5.130000000    -1.128000000     3.885000000
C     5.168000000    -1.915000000     2.693000000
H     4.542000000    -2.801000000     2.618000000
C     1.142000000    -1.991000000    -0.278000000
H     1.757000000    -2.486000000    -1.025000000
C     0.523000000    -0.760000000    -0.621000000
H     0.570000000    -0.343000000    -1.624000000
C    -0.209000000    -0.108000000     0.358000000
H    -0.685000000     0.872000000     0.112000000
C    -0.396000000    -0.664000000     1.653000000
H    -0.904000000    -0.043000000     2.387000000
C     0.234000000    -1.841000000     1.952000000
H     0.271000000    -2.176000000     2.986000000
C     1.055000000    -2.522000000     1.027000000
C     2.003000000    -3.629000000     1.501000000
O     2.060000000    -3.849000000     2.683000000
O     2.594000000    -4.346000000     0.660000000
O     2.957000000    -6.484000000    -4.033000000
H     3.403000000    -7.073000000    -3.424000000
H     3.297000000    -5.616000000    -3.819000000
O     6.869000000    -4.061000000     4.672000000
H     7.141000000    -3.358000000     5.262000000
H     6.033000000    -4.363000000     5.029000000
O     4.171000000    -5.042000000    -2.075000000
H     3.635000000    -4.614000000    -1.408000000
H     4.551000000    -5.799000000    -1.628000000
O     4.268000000    -5.237000000     3.850000000
H     4.944000000    -5.130000000     3.180000000
H     3.507000000    -4.777000000     3.496000000
O     2.140000000    -6.922000000     6.770000000
H     1.353000000    -7.443000000     6.615000000
H     1.829000000    -6.017000000     6.784000000
O     0.476000000    -7.084000000    -2.919000000
H     1.128000000    -6.577000000    -3.403000000
H     0.588000000    -6.811000000    -2.009000000
O    -1.225000000    -5.279000000     1.460000000
H    -2.069000000    -4.910000000     1.200000000
H    -1.370000000    -5.607000000     2.347000000
O    -0.087000000    -4.068000000     8.242000000
H     0.179000000    -3.591000000     7.456000000
H    -0.468000000    -3.399000000     8.811000000
O     4.466000000    -4.150000000     6.603000000
H     3.981000000    -4.773000000     7.145000000
H     3.889000000    -3.980000000     5.859000000
O     4.375000000    -7.974000000    -2.193000000
H     4.815000000    -7.886000000    -1.348000000
H     4.255000000    -8.917000000    -2.305000000
O    -1.749000000    -7.894000000     3.687000000
H    -1.567000000    -8.826000000     3.574000000
H    -0.901000000    -7.468000000     3.565000000
O     0.650000000    -6.636000000     3.389000000
H     1.376000000    -7.148000000     3.747000000
H     1.056000000    -5.822000000     3.089000000
O     2.216000000    -8.915000000     0.351000000
H     1.487000000    -8.338000000     0.125000000
H     2.977000000    -8.335000000     0.396000000
O     4.554000000    -5.941000000     0.726000000
H     3.910000000    -5.233000000     0.750000000
H     5.399000000    -5.494000000     0.674000000
O     7.019000000    -4.944000000     0.990000000
H     7.850000000    -5.212000000     0.598000000
H     7.166000000    -4.039000000     1.267000000
O     5.123000000    -8.648000000     1.863000000
H     4.609000000    -8.219000000     2.547000000
H     5.351000000    -7.944000000     1.257000000
O     0.998000000    -6.297000000    -0.398000000
H     1.686000000    -5.715000000    -0.074000000
H     0.280000000    -6.189000000     0.226000000
O     3.341000000    -7.947000000     4.040000000
H     3.636000000    -8.143000000     4.930000000
H     3.645000000    -7.054000000     3.879000000
O     1.389000000    -4.512000000     5.285000000
H     1.737000000    -4.157000000     4.467000000
H     0.627000000    -5.026000000     5.017000000
