215
-1475.10275
C    -4.357000000    -2.553000000     1.487000000
H    -4.897000000    -2.133000000     0.641000000
C    -3.832000000    -1.682000000     2.405000000
C    -3.102000000    -2.251000000     3.501000000
H    -2.598000000    -1.621000000     4.230000000
C    -3.670000000    -0.156000000     2.122000000
O    -4.765000000     0.406000000     1.370000000
H    -2.704000000    -0.102000000     1.599000000
O    -3.554000000     0.558000000     3.307000000
C    -2.772000000     1.679000000     3.306000000
C    -1.483000000     1.452000000     3.868000000
H    -1.340000000     0.504000000     4.380000000
C    -0.521000000     2.425000000     3.886000000
O     0.673000000     2.076000000     4.466000000
C    -0.742000000     3.640000000     3.230000000
C     0.376000000     4.654000000     3.103000000
H     0.033000000     5.690000000     3.046000000
C     1.390000000     4.228000000     2.005000000
C     1.094000000     4.795000000     0.758000000
H     0.193000000     5.373000000     0.572000000
H     0.848000000     4.708000000     4.086000000
C    -1.938000000     3.922000000     2.723000000
H    -2.130000000     4.874000000     2.234000000
C    -2.960000000     2.947000000     2.708000000
C    -4.184000000     3.254000000     1.897000000
H    -4.198000000     4.333000000     1.727000000
H    -5.115000000     2.926000000     2.366000000
C    -4.065000000     2.540000000     0.537000000
C    -3.677000000     3.266000000    -0.564000000
H    -3.378000000     4.304000000    -0.446000000
C    -4.425000000     1.180000000     0.335000000
C    -4.221000000     0.561000000    -0.900000000
H    -4.504000000    -0.470000000    -1.093000000
C    -3.882000000     1.375000000    -1.973000000
O    -3.698000000     0.697000000    -3.177000000
C    -2.330000000     0.348000000    -3.512000000
C    -2.225000000    -1.039000000    -4.107000000
C    -1.034000000    -1.414000000    -4.815000000
H    -0.194000000    -0.727000000    -4.882000000
C    -3.165000000    -2.066000000    -3.859000000
H    -4.094000000    -1.822000000    -3.351000000
O    -1.798000000     1.273000000    -4.455000000
H    -1.650000000     0.175000000    -2.666000000
C    -3.496000000     2.677000000    -1.852000000
C    -3.001000000     3.559000000    -3.036000000
H    -3.188000000     4.622000000    -2.872000000
H    -3.537000000     3.322000000    -3.958000000
C    -1.490000000     3.403000000    -3.227000000
C    -0.647000000     4.311000000    -2.523000000
H    -1.111000000     5.055000000    -1.882000000
C    -1.022000000     2.246000000    -3.912000000
C     0.415000000     2.051000000    -3.924000000
H     0.910000000     1.245000000    -4.460000000
C     1.241000000     3.022000000    -3.364000000
O     2.617000000     2.821000000    -3.283000000
C     3.127000000     2.176000000    -2.068000000
C     3.964000000     0.931000000    -2.335000000
C     4.021000000     0.424000000    -3.629000000
H     3.392000000     0.843000000    -4.410000000
C     4.603000000     0.198000000    -1.336000000
H     4.658000000     0.603000000    -0.329000000
O     3.747000000     3.174000000    -1.240000000
H     2.365000000     1.668000000    -1.459000000
C     0.715000000     4.031000000    -2.577000000
C     1.536000000     4.999000000    -1.700000000
H     0.973000000     5.916000000    -1.517000000
H     2.466000000     5.272000000    -2.203000000
C     1.864000000     4.392000000    -0.351000000
C     3.019000000     3.629000000    -0.141000000
C     3.283000000     3.112000000     1.104000000
H     4.180000000     2.503000000     1.185000000
C     2.458000000     3.379000000     2.189000000
O     2.648000000     2.603000000     3.343000000
C     1.725000000     1.535000000     3.640000000
H     1.273000000     1.193000000     2.697000000
C     2.442000000     0.304000000     4.216000000
C     1.789000000    -0.640000000     4.964000000
H     0.731000000    -0.652000000     5.212000000
C     3.795000000     0.264000000     4.103000000
H     4.302000000     0.980000000     3.461000000
C     4.515000000    -0.862000000     4.450000000
O     5.925000000    -0.974000000     4.209000000
C     3.889000000    -1.817000000     5.216000000
H     4.319000000    -2.752000000     5.566000000
C     2.499000000    -1.746000000     5.429000000
O     1.913000000    -2.775000000     6.149000000
C     0.580000000    -2.843000000     6.286000000
C    -0.209000000    -3.400000000     5.266000000
H     0.246000000    -3.801000000     4.364000000
C     0.012000000    -2.491000000     7.476000000
H     0.648000000    -2.013000000     8.217000000
C    -1.358000000    -2.536000000     7.704000000
H    -1.779000000    -2.152000000     8.629000000
C    -2.151000000    -3.106000000     6.754000000
H    -3.225000000    -3.219000000     6.878000000
C    -1.574000000    -3.489000000     5.562000000
O    -2.419000000    -4.218000000     4.708000000
C    -3.003000000    -3.607000000     3.610000000
C    -3.651000000    -4.467000000     2.742000000
H    -3.634000000    -5.549000000     2.839000000
C    -4.285000000    -3.931000000     1.641000000
O    -4.896000000    -4.730000000     0.748000000
C    -5.246000000    -4.443000000    -0.581000000
C    -4.304000000    -4.543000000    -1.555000000
H    -3.240000000    -4.715000000    -1.415000000
C    -6.610000000    -4.119000000    -0.818000000
H    -7.339000000    -3.927000000    -0.035000000
C    -7.078000000    -4.074000000    -2.198000000
H    -8.114000000    -3.867000000    -2.451000000
C    -6.108000000    -3.991000000    -3.163000000
H    -6.423000000    -3.764000000    -4.178000000
C    -4.752000000    -4.241000000    -2.869000000
O    -3.812000000    -4.394000000    -3.790000000
C    -3.003000000    -3.361000000    -4.295000000
C    -1.800000000    -3.678000000    -4.966000000
H    -1.625000000    -4.723000000    -5.211000000
C    -0.819000000    -2.768000000    -5.219000000
O     0.256000000    -3.097000000    -6.041000000
C     1.245000000    -2.197000000    -6.344000000
C     2.360000000    -2.057000000    -5.550000000
H     2.383000000    -2.718000000    -4.686000000
C     1.190000000    -1.454000000    -7.531000000
H     0.311000000    -1.590000000    -8.156000000
C     2.272000000    -0.618000000    -7.910000000
H     2.145000000    -0.007000000    -8.800000000
C     3.433000000    -0.529000000    -7.105000000
H     4.360000000    -0.023000000    -7.360000000
C     3.453000000    -1.228000000    -5.859000000
O     4.685000000    -1.241000000    -5.213000000
C     4.721000000    -0.695000000    -3.908000000
C     5.417000000    -1.488000000    -2.905000000
H     5.950000000    -2.385000000    -3.210000000
C     5.224000000    -1.029000000    -1.583000000
O     5.777000000    -1.703000000    -0.495000000
C     6.368000000    -1.084000000     0.585000000
C     7.252000000    -0.003000000     0.378000000
H     7.519000000     0.302000000    -0.630000000
C     7.855000000     0.652000000     1.467000000
H     8.658000000     1.381000000     1.405000000
C     7.423000000     0.257000000     2.720000000
H     7.804000000     0.760000000     3.604000000
C     6.521000000    -0.738000000     2.918000000
C     5.974000000    -1.491000000     1.887000000
H     5.155000000    -2.190000000     2.034000000
C    -0.207000000    -1.806000000    -1.312000000
H     0.061000000    -2.105000000    -2.322000000
C     0.091000000    -0.507000000    -0.939000000
H     0.450000000     0.289000000    -1.587000000
C    -0.051000000    -0.135000000     0.360000000
H     0.177000000     0.858000000     0.690000000
C    -0.363000000    -1.101000000     1.334000000
H    -0.357000000    -0.830000000     2.387000000
C    -0.570000000    -2.392000000     0.951000000
H    -0.825000000    -3.198000000     1.633000000
C    -0.544000000    -2.809000000    -0.366000000
C    -0.723000000    -4.280000000    -0.754000000
O    -1.091000000    -5.080000000     0.106000000
O    -0.448000000    -4.669000000    -1.865000000
O     4.297000000    -6.354000000     0.705000000
H     4.021000000    -7.230000000     0.435000000
H     3.701000000    -6.124000000     1.418000000
O     0.835000000   -10.518000000    -0.075000000
H     1.055000000   -10.049000000    -0.880000000
H     0.525000000    -9.837000000     0.522000000
O    -3.534000000    -7.509000000    -5.248000000
H    -3.073000000    -7.178000000    -6.019000000
H    -3.106000000    -7.077000000    -4.509000000
O     1.978000000    -4.563000000    -3.055000000
H     2.617000000    -4.454000000    -2.351000000
H     1.130000000    -4.554000000    -2.613000000
O     2.330000000    -7.607000000     2.603000000
H     1.890000000    -6.996000000     3.193000000
H     2.019000000    -8.470000000     2.875000000
O     2.327000000    -1.948000000     0.731000000
H     1.387000000    -1.872000000     0.562000000
H     2.670000000    -2.415000000    -0.031000000
O    -4.898000000    -7.799000000     1.358000000
H    -4.059000000    -7.696000000     0.908000000
H    -5.436000000    -7.080000000     1.027000000
O    -0.953000000    -8.693000000     2.169000000
H    -1.109000000    -7.957000000     2.761000000
H    -0.874000000    -9.452000000     2.747000000
O     2.190000000    -9.902000000    -2.544000000
H     2.048000000    -8.974000000    -2.734000000
H     3.061000000    -9.934000000    -2.148000000
O     1.579000000    -7.207000000    -3.450000000
H     0.641000000    -7.361000000    -3.338000000
H     1.686000000    -6.266000000    -3.316000000
O    -2.535000000    -7.388000000    -0.013000000
H    -2.175000000    -6.501000000    -0.020000000
H    -1.847000000    -7.923000000     0.383000000
O     0.618000000    -7.402000000    -0.382000000
H     0.004000000    -6.668000000    -0.419000000
H     1.124000000    -7.251000000     0.416000000
O    -1.122000000    -6.768000000     3.938000000
H    -0.789000000    -7.130000000     4.759000000
H    -1.916000000    -6.296000000     4.189000000
O     3.129000000    -4.113000000     2.547000000
H     3.139000000    -3.340000000     1.983000000
H     2.259000000    -4.491000000     2.420000000
O     0.600000000    -5.219000000     2.146000000
H    -0.005000000    -5.437000000     1.437000000
H     0.417000000    -5.868000000     2.825000000
O    -1.549000000    -6.785000000    -2.993000000
H    -1.023000000    -6.086000000    -2.605000000
H    -2.335000000    -6.822000000    -2.448000000
O    -3.964000000    -8.716000000    -1.885000000
H    -3.460000000    -8.368000000    -1.150000000
H    -3.327000000    -9.212000000    -2.399000000
O     4.171000000    -5.409000000    -4.648000000
H     4.720000000    -5.649000000    -3.902000000
H     3.327000000    -5.178000000    -4.260000000
O     3.497000000    -4.358000000    -0.825000000
H     4.332000000    -3.894000000    -0.886000000
H     3.688000000    -5.124000000    -0.283000000
