215
-1456.24402
C     3.800000000     1.680000000    -2.837000000
H     3.958000000     0.667000000    -3.199000000
C     3.867000000     1.896000000    -1.422000000
C     3.738000000     3.230000000    -0.974000000
H     3.670000000     3.435000000     0.091000000
C     4.138000000     0.718000000    -0.441000000
O     4.886000000    -0.329000000    -1.152000000
H     3.099000000     0.398000000    -0.274000000
O     4.828000000     1.208000000     0.779000000
C     4.312000000     0.690000000     2.002000000
C     3.490000000     1.566000000     2.762000000
H     3.332000000     2.605000000     2.483000000
C     2.611000000     1.110000000     3.720000000
O     1.675000000     2.060000000     4.160000000
C     2.688000000    -0.226000000     4.123000000
C     1.788000000    -0.678000000     5.245000000
H     2.222000000    -1.511000000     5.803000000
C     0.431000000    -1.193000000     4.818000000
C     0.243000000    -2.523000000     4.354000000
H     1.018000000    -3.281000000     4.436000000
H     1.621000000     0.246000000     5.802000000
C     3.522000000    -1.160000000     3.397000000
H     3.519000000    -2.234000000     3.567000000
C     4.405000000    -0.665000000     2.418000000
C     5.201000000    -1.653000000     1.547000000
H     5.469000000    -2.376000000     2.320000000
H     6.160000000    -1.229000000     1.242000000
C     4.470000000    -2.205000000     0.259000000
C     3.702000000    -3.429000000     0.415000000
H     3.782000000    -3.894000000     1.395000000
C     4.388000000    -1.615000000    -1.041000000
C     3.552000000    -2.098000000    -1.984000000
H     3.468000000    -1.512000000    -2.896000000
C     2.916000000    -3.331000000    -1.845000000
O     2.021000000    -3.753000000    -2.764000000
C     0.695000000    -3.208000000    -2.580000000
C     0.191000000    -2.545000000    -3.852000000
C    -1.189000000    -2.257000000    -3.936000000
H    -1.800000000    -2.545000000    -3.084000000
C     1.004000000    -2.071000000    -4.841000000
H     2.078000000    -2.118000000    -4.682000000
O    -0.160000000    -4.328000000    -2.197000000
H     0.739000000    -2.460000000    -1.775000000
C     2.872000000    -3.898000000    -0.573000000
C     2.061000000    -5.135000000    -0.303000000
H     2.517000000    -5.827000000     0.408000000
H     2.030000000    -5.730000000    -1.218000000
C     0.641000000    -4.771000000     0.099000000
C     0.346000000    -4.725000000     1.436000000
H     1.105000000    -4.930000000     2.186000000
C    -0.414000000    -4.596000000    -0.845000000
C    -1.689000000    -4.273000000    -0.484000000
H    -2.469000000    -4.066000000    -1.213000000
C    -1.966000000    -4.198000000     0.895000000
O    -3.219000000    -3.683000000     1.269000000
C    -3.218000000    -2.280000000     1.620000000
C    -4.465000000    -1.603000000     1.028000000
C    -4.965000000    -1.977000000    -0.206000000
H    -4.542000000    -2.825000000    -0.739000000
C    -5.065000000    -0.521000000     1.672000000
H    -4.849000000    -0.367000000     2.726000000
O    -3.210000000    -2.095000000     3.078000000
H    -2.326000000    -1.758000000     1.243000000
C    -0.961000000    -4.437000000     1.837000000
C    -1.287000000    -4.245000000     3.298000000
H    -0.757000000    -5.035000000     3.835000000
H    -2.315000000    -4.472000000     3.586000000
C    -1.019000000    -2.867000000     3.802000000
C    -2.014000000    -1.939000000     3.708000000
C    -1.728000000    -0.629000000     4.025000000
H    -2.499000000     0.078000000     3.728000000
C    -0.528000000    -0.197000000     4.595000000
O    -0.406000000     1.173000000     4.854000000
C     0.276000000     1.877000000     3.866000000
H     0.238000000     1.358000000     2.897000000
C    -0.410000000     3.085000000     3.547000000
C     0.311000000     4.072000000     2.839000000
H     1.332000000     3.910000000     2.506000000
C    -1.801000000     3.198000000     3.706000000
H    -2.382000000     2.385000000     4.135000000
C    -2.408000000     4.375000000     3.311000000
O    -3.724000000     4.544000000     3.728000000
C    -1.685000000     5.494000000     2.966000000
H    -2.175000000     6.461000000     2.888000000
C    -0.335000000     5.330000000     2.618000000
O     0.258000000     6.417000000     2.071000000
C     1.560000000     6.403000000     1.596000000
C     1.967000000     5.788000000     0.395000000
H     1.340000000     5.091000000    -0.156000000
C     2.539000000     7.111000000     2.333000000
H     2.267000000     7.615000000     3.257000000
C     3.842000000     7.286000000     1.833000000
H     4.612000000     7.853000000     2.350000000
C     4.162000000     6.740000000     0.597000000
H     5.122000000     6.890000000     0.110000000
C     3.263000000     5.989000000    -0.144000000
O     3.679000000     5.555000000    -1.394000000
C     3.523000000     4.272000000    -1.823000000
C     3.476000000     4.016000000    -3.215000000
H     3.594000000     4.893000000    -3.847000000
C     3.675000000     2.749000000    -3.673000000
O     3.801000000     2.514000000    -5.013000000
C     3.791000000     1.363000000    -5.767000000
C     2.571000000     0.631000000    -5.812000000
H     1.752000000     0.973000000    -5.185000000
C     4.726000000     1.099000000    -6.759000000
H     5.522000000     1.833000000    -6.851000000
C     4.634000000     0.024000000    -7.627000000
H     5.281000000    -0.029000000    -8.499000000
C     3.487000000    -0.741000000    -7.565000000
H     3.242000000    -1.358000000    -8.425000000
C     2.415000000    -0.388000000    -6.759000000
O     1.266000000    -1.020000000    -6.936000000
C     0.409000000    -1.422000000    -5.925000000
C    -0.950000000    -1.297000000    -6.107000000
H    -1.284000000    -0.712000000    -6.960000000
C    -1.767000000    -1.585000000    -5.068000000
O    -3.120000000    -1.292000000    -5.112000000
C    -4.060000000    -2.002000000    -4.485000000
C    -4.846000000    -1.438000000    -3.519000000
H    -4.629000000    -0.410000000    -3.240000000
C    -4.295000000    -3.331000000    -4.879000000
H    -3.642000000    -3.841000000    -5.582000000
C    -5.291000000    -4.082000000    -4.259000000
H    -5.462000000    -5.131000000    -4.487000000
C    -6.036000000    -3.514000000    -3.275000000
H    -6.801000000    -3.999000000    -2.672000000
C    -5.878000000    -2.176000000    -2.966000000
O    -6.583000000    -1.569000000    -1.968000000
C    -6.097000000    -1.291000000    -0.700000000
C    -6.678000000    -0.203000000    -0.085000000
H    -7.417000000     0.452000000    -0.539000000
C    -6.152000000     0.200000000     1.170000000
O    -6.646000000     1.422000000     1.661000000
C    -6.165000000     1.997000000     2.837000000
C    -6.581000000     1.519000000     4.166000000
H    -7.211000000     0.633000000     4.171000000
C    -6.044000000     2.125000000     5.279000000
H    -6.143000000     1.598000000     6.225000000
C    -5.091000000     3.149000000     5.148000000
H    -4.710000000     3.650000000     6.034000000
C    -4.696000000     3.560000000     3.871000000
C    -5.200000000     2.942000000     2.747000000
H    -4.812000000     3.195000000     1.763000000
C    -1.637000000     0.055000000    -0.685000000
H    -2.419000000    -0.418000000    -1.274000000
C    -0.632000000    -0.705000000    -0.074000000
H    -0.579000000    -1.789000000    -0.116000000
C     0.435000000    -0.111000000     0.485000000
H     1.136000000    -0.794000000     0.901000000
C     0.577000000     1.268000000     0.428000000
H     1.503000000     1.685000000     0.815000000
C    -0.392000000     2.067000000    -0.119000000
H    -0.255000000     3.144000000    -0.064000000
C    -1.525000000     1.481000000    -0.684000000
C    -2.535000000     2.400000000    -1.339000000
O    -2.496000000     3.614000000    -1.225000000
O    -3.502000000     1.852000000    -1.928000000
O    -0.980000000     5.804000000    -0.905000000
H    -1.155000000     6.192000000    -0.048000000
H    -1.691000000     5.176000000    -1.033000000
O     0.692000000     6.665000000    -3.274000000
H     0.024000000     6.606000000    -2.591000000
H     1.017000000     7.563000000    -3.214000000
O    -8.377000000     0.695000000    -3.290000000
H    -7.633000000     0.697000000    -2.687000000
H    -8.045000000     0.267000000    -4.079000000
O    -1.800000000     7.557000000    -4.589000000
H    -1.915000000     6.609000000    -4.654000000
H    -0.853000000     7.688000000    -4.643000000
O    -4.257000000     5.676000000    -0.741000000
H    -4.375000000     6.184000000    -1.544000000
H    -3.727000000     4.925000000    -1.008000000
O    -5.149000000     2.170000000    -6.096000000
H    -5.522000000     2.935000000    -5.658000000
H    -4.362000000     1.965000000    -5.592000000
O    -6.822000000     4.126000000    -0.296000000
H    -6.514000000     3.381000000    -0.812000000
H    -6.047000000     4.678000000    -0.188000000
O    -6.169000000     2.099000000    -2.115000000
H    -5.222000000     2.065000000    -1.980000000
H    -6.279000000     2.610000000    -2.916000000
O    -3.332000000     1.036000000    -8.252000000
H    -3.832000000     0.823000000    -9.040000000
H    -3.970000000     1.443000000    -7.666000000
O    -8.859000000     5.426000000     1.132000000
H    -8.234000000     4.995000000     0.549000000
H    -9.709000000     5.295000000     0.712000000
O    -9.345000000     2.232000000     0.176000000
H    -8.409000000     2.413000000     0.259000000
H    -9.471000000     1.404000000     0.641000000
O    -1.303000000     4.982000000    -7.523000000
H    -1.202000000     5.633000000    -8.217000000
H    -2.249000000     4.849000000    -7.456000000
O    -6.935000000     3.671000000    -4.350000000
H    -7.342000000     4.409000000    -4.805000000
H    -7.602000000     2.985000000    -4.364000000
O    -2.439000000     4.600000000    -3.727000000
H    -2.318000000     4.433000000    -2.793000000
H    -2.728000000     3.761000000    -4.085000000
O    -2.913000000     1.873000000    -4.553000000
H    -3.088000000     1.538000000    -3.674000000
H    -1.959000000     1.935000000    -4.600000000
O    -5.268000000     7.009000000     1.394000000
H    -5.633000000     7.774000000     0.950000000
H    -4.675000000     6.619000000     0.752000000
O     0.027000000     2.731000000    -4.023000000
H     0.502000000     3.495000000    -4.349000000
H    -0.634000000     3.093000000    -3.434000000
O    -6.963000000     5.803000000     3.111000000
H    -7.491000000     5.401000000     2.421000000
H    -6.227000000     6.203000000     2.648000000
O     0.697000000     5.056000000    -5.560000000
H     0.524000000     5.551000000    -4.759000000
H    -0.075000000     5.206000000    -6.106000000
