215
-1425.11106
C    -4.397000000    -1.574000000     0.554000000
H    -4.140000000    -1.305000000    -0.468000000
C    -4.286000000    -0.617000000     1.604000000
C    -4.362000000    -1.008000000     2.966000000
H    -4.223000000    -0.312000000     3.789000000
C    -3.991000000     0.857000000     1.240000000
O    -4.819000000     1.317000000     0.205000000
H    -2.972000000     0.805000000     0.829000000
O    -4.125000000     1.763000000     2.387000000
C    -3.033000000     2.570000000     2.490000000
C    -2.010000000     2.171000000     3.355000000
H    -1.966000000     1.218000000     3.878000000
C    -0.882000000     2.902000000     3.444000000
O     0.019000000     2.380000000     4.341000000
C    -0.725000000     4.073000000     2.739000000
C     0.578000000     4.855000000     2.855000000
H     0.479000000     5.870000000     2.465000000
C     1.600000000     4.141000000     1.942000000
C     1.817000000     4.669000000     0.637000000
H     1.203000000     5.491000000     0.276000000
H     0.909000000     4.889000000     3.895000000
C    -1.732000000     4.499000000     1.815000000
H    -1.503000000     5.342000000     1.169000000
C    -2.900000000     3.740000000     1.697000000
C    -4.042000000     4.170000000     0.706000000
H    -4.101000000     5.243000000     0.516000000
H    -5.000000000     3.800000000     1.076000000
C    -3.728000000     3.441000000    -0.543000000
C    -2.918000000     4.028000000    -1.546000000
H    -2.507000000     5.003000000    -1.299000000
C    -4.241000000     2.159000000    -0.759000000
C    -3.910000000     1.542000000    -1.899000000
H    -4.214000000     0.498000000    -1.880000000
C    -3.156000000     2.088000000    -2.892000000
O    -2.771000000     1.216000000    -3.868000000
C    -1.350000000     0.851000000    -4.100000000
C    -1.180000000    -0.625000000    -4.573000000
C    -0.164000000    -0.985000000    -5.433000000
H     0.358000000    -0.231000000    -6.018000000
C    -2.029000000    -1.667000000    -4.109000000
H    -2.830000000    -1.437000000    -3.412000000
O    -0.674000000     1.768000000    -4.977000000
H    -0.929000000     0.738000000    -3.090000000
C    -2.549000000     3.365000000    -2.684000000
C    -1.586000000     4.097000000    -3.655000000
H    -1.826000000     5.161000000    -3.600000000
H    -1.908000000     3.967000000    -4.690000000
C    -0.144000000     3.692000000    -3.631000000
C     0.658000000     4.372000000    -2.736000000
H     0.265000000     5.286000000    -2.299000000
C     0.284000000     2.488000000    -4.242000000
C     1.513000000     1.968000000    -4.038000000
H     1.862000000     1.003000000    -4.400000000
C     2.364000000     2.651000000    -3.227000000
O     3.488000000     2.026000000    -2.787000000
C     3.323000000     1.412000000    -1.458000000
C     3.857000000    -0.035000000    -1.476000000
C     4.158000000    -0.738000000    -2.672000000
H     4.252000000    -0.276000000    -3.652000000
C     3.818000000    -0.646000000    -0.272000000
H     3.568000000    -0.107000000     0.638000000
O     4.179000000     2.206000000    -0.618000000
H     2.289000000     1.468000000    -1.088000000
C     1.961000000     3.877000000    -2.561000000
C     2.865000000     4.635000000    -1.644000000
H     2.597000000     5.693000000    -1.603000000
H     3.937000000     4.563000000    -1.842000000
C     2.801000000     4.130000000    -0.192000000
C     3.572000000     3.040000000     0.267000000
C     3.370000000     2.484000000     1.488000000
H     4.028000000     1.774000000     1.981000000
C     2.398000000     3.045000000     2.298000000
O     2.337000000     2.584000000     3.631000000
C     1.199000000     1.659000000     3.928000000
H     0.963000000     1.190000000     2.962000000
C     1.510000000     0.461000000     4.834000000
C     0.497000000    -0.374000000     5.319000000
H    -0.527000000    -0.025000000     5.219000000
C     2.821000000     0.028000000     5.061000000
H     3.630000000     0.619000000     4.639000000
C     3.126000000    -1.165000000     5.655000000
O     4.420000000    -1.717000000     5.559000000
C     2.074000000    -2.019000000     6.104000000
H     2.369000000    -2.916000000     6.642000000
C     0.807000000    -1.558000000     6.056000000
O    -0.162000000    -2.409000000     6.543000000
C    -1.448000000    -2.046000000     6.591000000
C    -2.253000000    -2.619000000     5.681000000
H    -1.828000000    -3.333000000     4.980000000
C    -1.947000000    -1.221000000     7.534000000
H    -1.329000000    -0.756000000     8.298000000
C    -3.306000000    -0.895000000     7.598000000
H    -3.748000000    -0.207000000     8.314000000
C    -4.104000000    -1.358000000     6.565000000
H    -5.167000000    -1.127000000     6.568000000
C    -3.588000000    -2.259000000     5.595000000
O    -4.504000000    -2.714000000     4.599000000
C    -4.395000000    -2.339000000     3.287000000
C    -4.598000000    -3.284000000     2.322000000
H    -4.610000000    -4.312000000     2.676000000
C    -4.592000000    -2.928000000     0.971000000
O    -4.622000000    -4.051000000     0.162000000
C    -4.785000000    -4.057000000    -1.217000000
C    -3.638000000    -3.970000000    -1.981000000
H    -2.634000000    -3.857000000    -1.581000000
C    -6.069000000    -4.109000000    -1.756000000
H    -6.868000000    -4.190000000    -1.022000000
C    -6.235000000    -4.045000000    -3.117000000
H    -7.208000000    -3.938000000    -3.590000000
C    -5.094000000    -3.965000000    -3.902000000
H    -5.101000000    -3.861000000    -4.984000000
C    -3.812000000    -4.034000000    -3.333000000
O    -2.757000000    -3.971000000    -4.174000000
C    -1.787000000    -2.968000000    -4.469000000
C    -0.857000000    -3.280000000    -5.427000000
H    -0.811000000    -4.261000000    -5.891000000
C     0.037000000    -2.259000000    -5.813000000
O     0.997000000    -2.553000000    -6.752000000
C     2.336000000    -2.625000000    -6.428000000
C     2.909000000    -2.679000000    -5.138000000
H     2.318000000    -2.570000000    -4.232000000
C     3.244000000    -2.931000000    -7.524000000
H     2.858000000    -2.850000000    -8.537000000
C     4.593000000    -3.197000000    -7.318000000
H     5.131000000    -3.443000000    -8.230000000
C     5.119000000    -3.180000000    -6.069000000
H     6.205000000    -3.143000000    -6.038000000
C     4.289000000    -2.907000000    -4.955000000
O     4.815000000    -2.916000000    -3.688000000
C     4.423000000    -2.106000000    -2.583000000
C     4.222000000    -2.782000000    -1.423000000
H     4.360000000    -3.859000000    -1.451000000
C     4.067000000    -2.088000000    -0.238000000
O     3.892000000    -2.760000000     0.947000000
C     4.815000000    -2.418000000     1.946000000
C     6.193000000    -2.400000000     1.881000000
H     6.664000000    -2.715000000     0.953000000
C     6.966000000    -1.900000000     2.935000000
H     8.042000000    -1.962000000     2.791000000
C     6.309000000    -1.651000000     4.158000000
H     6.838000000    -1.321000000     5.048000000
C     4.992000000    -1.742000000     4.279000000
C     4.230000000    -2.148000000     3.156000000
H     3.158000000    -2.306000000     3.245000000
C     0.888000000    -2.307000000    -0.697000000
H     1.349000000    -2.957000000    -1.436000000
C     0.489000000    -1.057000000    -1.226000000
H     0.863000000    -0.837000000    -2.222000000
C    -0.046000000    -0.089000000    -0.441000000
H    -0.247000000     0.833000000    -0.957000000
C    -0.283000000    -0.304000000     0.942000000
H    -0.715000000     0.494000000     1.540000000
C    -0.086000000    -1.628000000     1.443000000
H    -0.289000000    -1.813000000     2.495000000
C     0.535000000    -2.616000000     0.640000000
C     0.942000000    -3.947000000     1.175000000
O     1.000000000    -4.186000000     2.349000000
O     0.916000000    -4.900000000     0.417000000
O     1.402000000    -5.827000000    -4.054000000
H     0.449000000    -5.813000000    -4.143000000
H     1.560000000    -5.593000000    -3.140000000
O     3.613000000    -5.193000000     2.587000000
H     2.800000000    -4.722000000     2.405000000
H     4.300000000    -4.535000000     2.483000000
O     1.010000000    -4.668000000     4.804000000
H     1.009000000    -4.252000000     3.942000000
H     0.083000000    -4.789000000     5.012000000
O    -1.533000000    -6.516000000    -4.147000000
H    -2.297000000    -6.979000000    -4.490000000
H    -1.845000000    -5.626000000    -3.985000000
O    -1.332000000    -5.338000000     3.356000000
H    -1.318000000    -5.967000000     2.635000000
H    -0.734000000    -4.643000000     3.079000000
O     2.630000000   -10.219000000     1.692000000
H     2.383000000    -9.322000000     1.467000000
H     2.719000000   -10.211000000     2.645000000
O     4.334000000    -4.660000000     7.590000000
H     3.843000000    -4.857000000     6.792000000
H     3.773000000    -4.974000000     8.300000000
O    -2.843000000    -9.412000000     2.320000000
H    -3.183000000   -10.151000000     1.815000000
H    -1.902000000    -9.574000000     2.377000000
O     0.988000000    -8.551000000    -2.374000000
H     1.575000000    -7.796000000    -2.332000000
H     1.112000000    -8.997000000    -1.536000000
O    -1.167000000    -6.331000000     0.833000000
H    -1.278000000    -6.950000000     0.111000000
H    -0.424000000    -5.789000000     0.571000000
O     6.344000000    -4.682000000     5.388000000
H     6.046000000    -3.824000000     5.085000000
H     6.156000000    -4.683000000     6.327000000
O    -1.583000000    -7.763000000    -1.359000000
H    -0.746000000    -8.135000000    -1.638000000
H    -1.858000000    -7.215000000    -2.094000000
O    -5.042000000    -6.952000000    -0.209000000
H    -4.266000000    -6.393000000    -0.182000000
H    -4.783000000    -7.695000000    -0.754000000
O    -0.209000000    -9.464000000     2.717000000
H     0.557000000    -9.548000000     3.285000000
H    -0.002000000    -8.727000000     2.142000000
O     2.446000000    -6.110000000    -1.385000000
H     1.943000000    -5.604000000    -0.747000000
H     3.120000000    -6.548000000    -0.866000000
O    -3.259000000    -6.232000000     5.308000000
H    -2.544000000    -5.680000000     4.991000000
H    -3.721000000    -6.505000000     4.515000000
O     5.252000000    -6.662000000     0.109000000
H     5.171000000    -6.024000000     0.818000000
H     5.942000000    -6.310000000    -0.452000000
O     3.373000000    -6.364000000     5.076000000
H     3.523000000    -5.938000000     4.232000000
H     2.451000000    -6.194000000     5.270000000
O     1.746000000    -7.424000000     1.427000000
H     1.212000000    -6.635000000     1.336000000
H     2.494000000    -7.147000000     1.957000000
