215
-1447.43598
C    -5.054000000    -1.596000000     0.106000000
H    -5.449000000    -1.102000000    -0.778000000
C    -4.418000000    -0.724000000     1.039000000
C    -3.842000000    -1.343000000     2.144000000
H    -3.237000000    -0.729000000     2.808000000
C    -4.059000000     0.682000000     0.700000000
O    -4.905000000     1.259000000    -0.309000000
H    -3.004000000     0.619000000     0.395000000
O    -4.180000000     1.561000000     1.880000000
C    -3.162000000     2.436000000     2.138000000
C    -2.341000000     2.108000000     3.176000000
H    -2.485000000     1.153000000     3.676000000
C    -1.244000000     2.921000000     3.485000000
O    -0.431000000     2.420000000     4.420000000
C    -0.989000000     4.062000000     2.734000000
C     0.166000000     4.973000000     3.003000000
H     0.053000000     5.952000000     2.533000000
C     1.311000000     4.390000000     2.255000000
C     1.436000000     4.754000000     0.946000000
H     0.863000000     5.581000000     0.534000000
H     0.374000000     5.255000000     4.037000000
C    -1.851000000     4.398000000     1.706000000
H    -1.621000000     5.239000000     1.057000000
C    -2.936000000     3.612000000     1.376000000
C    -3.897000000     3.974000000     0.317000000
H    -3.952000000     5.062000000     0.233000000
H    -4.918000000     3.711000000     0.599000000
C    -3.540000000     3.191000000    -0.944000000
C    -2.628000000     3.739000000    -1.851000000
H    -2.150000000     4.689000000    -1.628000000
C    -4.110000000     1.956000000    -1.202000000
C    -3.819000000     1.275000000    -2.372000000
H    -4.185000000     0.263000000    -2.527000000
C    -2.966000000     1.823000000    -3.325000000
O    -2.519000000     0.996000000    -4.322000000
C    -1.191000000     0.371000000    -4.145000000
C    -1.103000000    -1.126000000    -4.573000000
C     0.097000000    -1.669000000    -5.095000000
H     0.972000000    -1.032000000    -5.196000000
C    -2.264000000    -1.920000000    -4.449000000
H    -3.164000000    -1.483000000    -4.024000000
O    -0.168000000     1.149000000    -4.858000000
H    -0.968000000     0.423000000    -3.069000000
C    -2.363000000     3.103000000    -3.106000000
C    -1.417000000     3.703000000    -4.031000000
H    -1.446000000     4.787000000    -3.906000000
H    -1.662000000     3.599000000    -5.090000000
C    -0.056000000     3.270000000    -3.685000000
C     0.607000000     4.067000000    -2.772000000
H     0.171000000     4.898000000    -2.223000000
C     0.536000000     2.101000000    -4.172000000
C     1.835000000     1.798000000    -3.797000000
H     2.252000000     0.837000000    -4.086000000
C     2.494000000     2.642000000    -2.919000000
O     3.687000000     2.278000000    -2.353000000
C     3.792000000     1.613000000    -1.138000000
C     4.624000000     0.337000000    -1.113000000
C     4.297000000    -0.694000000    -1.965000000
H     3.513000000    -0.541000000    -2.702000000
C     5.602000000     0.224000000    -0.086000000
H     5.846000000     0.965000000     0.671000000
O     4.218000000     2.618000000    -0.212000000
H     2.806000000     1.193000000    -0.889000000
C     1.917000000     3.793000000    -2.420000000
C     2.509000000     4.691000000    -1.358000000
H     1.993000000     5.647000000    -1.471000000
H     3.554000000     4.873000000    -1.618000000
C     2.432000000     4.194000000     0.086000000
C     3.287000000     3.266000000     0.602000000
C     3.096000000     2.744000000     1.877000000
H     3.710000000     1.918000000     2.226000000
C     2.132000000     3.354000000     2.757000000
O     1.905000000     2.702000000     3.990000000
C     0.791000000     1.773000000     3.939000000
H     0.625000000     1.412000000     2.913000000
C     1.126000000     0.542000000     4.754000000
C     0.195000000    -0.036000000     5.661000000
H    -0.778000000     0.355000000     5.949000000
C     2.196000000    -0.215000000     4.342000000
H     2.822000000     0.130000000     3.524000000
C     2.582000000    -1.355000000     5.068000000
O     3.820000000    -1.934000000     4.935000000
C     1.724000000    -1.933000000     6.011000000
H     1.917000000    -2.839000000     6.579000000
C     0.486000000    -1.272000000     6.224000000
O    -0.452000000    -1.873000000     6.959000000
C    -1.709000000    -2.145000000     6.444000000
C    -1.836000000    -2.849000000     5.220000000
H    -1.028000000    -3.349000000     4.692000000
C    -2.828000000    -1.567000000     6.992000000
H    -2.609000000    -1.023000000     7.908000000
C    -4.113000000    -1.635000000     6.445000000
H    -4.941000000    -1.369000000     7.096000000
C    -4.282000000    -2.306000000     5.290000000
H    -5.270000000    -2.339000000     4.837000000
C    -3.167000000    -2.894000000     4.659000000
O    -3.218000000    -3.361000000     3.424000000
C    -3.948000000    -2.714000000     2.403000000
C    -4.521000000    -3.510000000     1.475000000
H    -4.587000000    -4.564000000     1.733000000
C    -5.133000000    -2.948000000     0.366000000
O    -5.844000000    -3.724000000    -0.515000000
C    -5.739000000    -3.568000000    -1.829000000
C    -4.501000000    -3.886000000    -2.367000000
H    -3.642000000    -4.002000000    -1.711000000
C    -6.851000000    -3.192000000    -2.625000000
H    -7.849000000    -3.123000000    -2.199000000
C    -6.734000000    -3.196000000    -4.016000000
H    -7.566000000    -2.968000000    -4.677000000
C    -5.490000000    -3.549000000    -4.596000000
H    -5.491000000    -3.643000000    -5.679000000
C    -4.461000000    -3.895000000    -3.802000000
O    -3.208000000    -4.171000000    -4.487000000
C    -2.174000000    -3.302000000    -4.653000000
C    -1.003000000    -3.811000000    -5.218000000
H    -0.930000000    -4.870000000    -5.449000000
C     0.146000000    -3.045000000    -5.433000000
O     1.262000000    -3.623000000    -5.971000000
C     2.588000000    -3.450000000    -5.664000000
C     2.937000000    -3.202000000    -4.335000000
H     2.155000000    -3.086000000    -3.588000000
C     3.644000000    -3.758000000    -6.547000000
H     3.350000000    -4.099000000    -7.537000000
C     5.009000000    -3.677000000    -6.186000000
H     5.785000000    -3.901000000    -6.914000000
C     5.261000000    -3.392000000    -4.796000000
H     6.287000000    -3.551000000    -4.476000000
C     4.232000000    -3.113000000    -3.931000000
O     4.487000000    -3.070000000    -2.532000000
C     4.841000000    -1.970000000    -1.777000000
C     5.644000000    -2.153000000    -0.677000000
H     5.981000000    -3.150000000    -0.404000000
C     6.033000000    -1.094000000     0.080000000
O     6.795000000    -1.387000000     1.236000000
C     6.423000000    -0.962000000     2.491000000
C     7.285000000    -0.259000000     3.308000000
H     8.225000000     0.145000000     2.939000000
C     6.939000000    -0.143000000     4.654000000
H     7.634000000     0.374000000     5.310000000
C     5.876000000    -0.923000000     5.152000000
H     5.668000000    -0.844000000     6.216000000
C     5.003000000    -1.505000000     4.326000000
C     5.215000000    -1.596000000     2.952000000
H     4.499000000    -2.136000000     2.337000000
C     1.447000000    -1.916000000    -0.462000000
H     1.991000000    -2.488000000    -1.210000000
C     1.103000000    -0.603000000    -0.730000000
H     1.487000000    -0.179000000    -1.654000000
C     0.298000000     0.166000000     0.182000000
H     0.227000000     1.278000000     0.050000000
C    -0.175000000    -0.470000000     1.301000000
H    -0.730000000     0.115000000     2.030000000
C     0.070000000    -1.798000000     1.481000000
H    -0.352000000    -2.340000000     2.323000000
C     0.897000000    -2.582000000     0.640000000
C     1.284000000    -3.980000000     1.009000000
O     0.584000000    -4.500000000     1.902000000
O     1.855000000    -4.761000000     0.280000000
O    -1.542000000    -5.993000000    -1.254000000
H    -1.536000000    -5.853000000    -0.307000000
H    -2.217000000    -6.658000000    -1.394000000
O     4.571000000    -5.544000000     0.066000000
H     3.805000000    -4.973000000     0.023000000
H     4.243000000    -6.406000000    -0.191000000
O     2.061000000    -7.684000000     5.400000000
H     2.739000000    -8.139000000     5.900000000
H     1.580000000    -7.177000000     6.054000000
O     2.648000000    -6.018000000     3.191000000
H     2.023000000    -5.347000000     2.914000000
H     2.248000000    -6.410000000     3.967000000
O     0.870000000    -6.193000000    -4.835000000
H     1.265000000    -5.761000000    -4.077000000
H     0.920000000    -5.541000000    -5.534000000
O    -1.817000000    -4.987000000     1.368000000
H    -0.862000000    -4.924000000     1.343000000
H    -2.119000000    -4.085000000     1.267000000
O     3.742000000    -8.602000000     2.943000000
H     3.295000000    -7.828000000     3.288000000
H     4.642000000    -8.313000000     2.795000000
O     3.918000000    -8.364000000    -0.586000000
H     3.742000000    -9.174000000    -1.065000000
H     4.763000000    -8.515000000    -0.163000000
O    -3.299000000    -7.148000000     2.672000000
H    -2.524000000    -7.686000000     2.833000000
H    -2.967000000    -6.390000000     2.190000000
O     4.977000000    -4.574000000     2.417000000
H     4.963000000    -4.916000000     1.523000000
H     4.156000000    -4.880000000     2.804000000
O    -0.793000000    -8.135000000     1.825000000
H    -1.287000000    -8.416000000     1.055000000
H    -0.007000000    -7.722000000     1.468000000
O     6.021000000    -7.318000000     1.901000000
H     5.878000000    -6.709000000     1.177000000
H     6.829000000    -7.013000000     2.314000000
O     1.051000000   -10.122000000    -0.665000000
H     0.992000000    -9.253000000    -0.269000000
H     1.353000000   -10.689000000     0.045000000
O    -1.425000000    -6.892000000     6.375000000
H    -0.665000000    -6.826000000     6.954000000
H    -1.153000000    -6.448000000     5.572000000
O     1.061000000    -5.254000000    -2.056000000
H     1.516000000    -5.244000000    -1.213000000
H     0.183000000    -5.574000000    -1.851000000
O    -0.445000000    -6.032000000     3.821000000
H    -0.372000000    -5.365000000     3.138000000
H    -0.394000000    -6.864000000     3.350000000
O     1.536000000    -7.490000000     0.512000000
H     2.269000000    -7.766000000    -0.038000000
H     1.627000000    -6.539000000     0.573000000
O     3.657000000    -5.881000000    -2.694000000
H     2.757000000    -5.783000000    -2.383000000
H     4.028000000    -5.000000000    -2.636000000
O     7.369000000    -3.953000000     3.727000000
H     7.673000000    -4.823000000     3.468000000
H     6.668000000    -3.751000000     3.107000000
