215
-1454.75158
C    -4.458000000    -2.036000000     1.006000000
H    -4.769000000    -1.571000000     0.074000000
C    -3.873000000    -1.213000000     1.993000000
C    -3.516000000    -1.829000000     3.205000000
H    -3.257000000    -1.207000000     4.058000000
C    -3.704000000     0.285000000     1.746000000
O    -4.728000000     0.755000000     0.840000000
H    -2.716000000     0.450000000     1.291000000
O    -3.702000000     1.049000000     2.956000000
C    -2.693000000     1.918000000     3.071000000
C    -1.590000000     1.647000000     3.932000000
H    -1.492000000     0.705000000     4.465000000
C    -0.557000000     2.543000000     4.055000000
O     0.541000000     2.162000000     4.752000000
C    -0.541000000     3.713000000     3.301000000
C     0.616000000     4.671000000     3.399000000
H     0.182000000     5.666000000     3.282000000
C     1.525000000     4.274000000     2.211000000
C     1.455000000     4.916000000     0.995000000
H     0.707000000     5.701000000     0.925000000
H     1.123000000     4.575000000     4.362000000
C    -1.644000000     4.001000000     2.539000000
H    -1.637000000     4.890000000     1.915000000
C    -2.696000000     3.134000000     2.403000000
C    -3.996000000     3.526000000     1.604000000
H    -4.039000000     4.617000000     1.635000000
H    -4.915000000     3.152000000     2.060000000
C    -3.972000000     3.006000000     0.200000000
C    -3.460000000     3.788000000    -0.881000000
H    -3.234000000     4.838000000    -0.713000000
C    -4.320000000     1.709000000    -0.065000000
C    -4.157000000     1.163000000    -1.339000000
H    -4.474000000     0.161000000    -1.619000000
C    -3.552000000     1.888000000    -2.359000000
O    -3.330000000     1.294000000    -3.592000000
C    -2.024000000     0.929000000    -4.018000000
C    -1.902000000    -0.445000000    -4.561000000
C    -0.863000000    -0.839000000    -5.412000000
H    -0.263000000    -0.111000000    -5.952000000
C    -2.638000000    -1.481000000    -4.077000000
H    -3.479000000    -1.249000000    -3.428000000
O    -1.305000000     1.965000000    -4.799000000
H    -1.444000000     0.803000000    -3.092000000
C    -3.340000000     3.254000000    -2.183000000
C    -2.636000000     4.102000000    -3.299000000
H    -2.696000000     5.156000000    -3.020000000
H    -3.084000000     3.933000000    -4.280000000
C    -1.147000000     3.846000000    -3.316000000
C    -0.336000000     4.650000000    -2.460000000
H    -0.621000000     5.501000000    -1.846000000
C    -0.577000000     2.855000000    -4.067000000
C     0.762000000     2.593000000    -4.005000000
H     1.091000000     1.623000000    -4.370000000
C     1.550000000     3.418000000    -3.159000000
O     2.903000000     3.047000000    -3.014000000
C     3.159000000     2.236000000    -1.790000000
C     3.934000000     1.001000000    -2.056000000
C     4.165000000     0.537000000    -3.347000000
H     3.915000000     1.170000000    -4.194000000
C     4.290000000     0.134000000    -1.014000000
H     4.094000000     0.445000000     0.009000000
O     3.854000000     3.037000000    -0.867000000
H     2.165000000     2.040000000    -1.362000000
C     1.036000000     4.389000000    -2.378000000
C     1.881000000     5.240000000    -1.451000000
H     1.385000000     6.188000000    -1.233000000
H     2.854000000     5.367000000    -1.931000000
C     2.151000000     4.550000000    -0.090000000
C     3.079000000     3.531000000     0.126000000
C     3.337000000     2.964000000     1.388000000
H     4.107000000     2.213000000     1.543000000
C     2.476000000     3.296000000     2.419000000
O     2.550000000     2.594000000     3.604000000
C     1.538000000     1.563000000     3.876000000
H     1.099000000     1.347000000     2.890000000
C     2.225000000     0.317000000     4.477000000
C     1.331000000    -0.732000000     4.872000000
H     0.263000000    -0.549000000     4.963000000
C     3.559000000     0.071000000     4.188000000
H     4.218000000     0.763000000     3.670000000
C     4.070000000    -1.118000000     4.696000000
O     5.359000000    -1.449000000     4.476000000
C     3.272000000    -2.012000000     5.357000000
H     3.685000000    -2.975000000     5.647000000
C     1.907000000    -1.880000000     5.413000000
O     1.219000000    -2.931000000     5.968000000
C    -0.164000000    -2.817000000     6.189000000
C    -1.055000000    -3.362000000     5.258000000
H    -0.674000000    -3.906000000     4.397000000
C    -0.666000000    -2.192000000     7.359000000
H     0.020000000    -1.738000000     8.070000000
C    -2.017000000    -2.118000000     7.577000000
H    -2.492000000    -1.684000000     8.453000000
C    -2.937000000    -2.716000000     6.665000000
H    -4.018000000    -2.630000000     6.740000000
C    -2.453000000    -3.321000000     5.464000000
O    -3.410000000    -3.758000000     4.575000000
C    -3.666000000    -3.219000000     3.413000000
C    -4.220000000    -4.028000000     2.456000000
H    -4.505000000    -5.067000000     2.604000000
C    -4.658000000    -3.411000000     1.257000000
O    -5.358000000    -4.173000000     0.348000000
C    -5.425000000    -3.861000000    -1.002000000
C    -4.228000000    -3.911000000    -1.743000000
H    -3.373000000    -4.205000000    -1.140000000
C    -6.615000000    -3.633000000    -1.633000000
H    -7.543000000    -3.683000000    -1.069000000
C    -6.562000000    -3.438000000    -3.022000000
H    -7.519000000    -3.281000000    -3.514000000
C    -5.429000000    -3.501000000    -3.799000000
H    -5.325000000    -3.344000000    -4.870000000
C    -4.222000000    -3.781000000    -3.089000000
O    -2.990000000    -3.802000000    -3.726000000
C    -2.293000000    -2.761000000    -4.293000000
C    -1.274000000    -3.163000000    -5.152000000
H    -1.183000000    -4.217000000    -5.404000000
C    -0.592000000    -2.177000000    -5.799000000
O     0.340000000    -2.502000000    -6.701000000
C     1.567000000    -2.756000000    -6.267000000
C     2.367000000    -1.785000000    -5.634000000
H     2.058000000    -0.761000000    -5.441000000
C     2.117000000    -4.057000000    -6.539000000
H     1.611000000    -4.809000000    -7.140000000
C     3.480000000    -4.292000000    -6.263000000
H     3.827000000    -5.320000000    -6.334000000
C     4.263000000    -3.346000000    -5.634000000
H     5.291000000    -3.571000000    -5.365000000
C     3.656000000    -2.130000000    -5.359000000
O     4.504000000    -1.152000000    -4.916000000
C     4.570000000    -0.770000000    -3.594000000
C     4.837000000    -1.647000000    -2.608000000
H     5.059000000    -2.692000000    -2.808000000
C     4.723000000    -1.139000000    -1.293000000
O     4.842000000    -2.018000000    -0.248000000
C     5.586000000    -1.818000000     0.882000000
C     6.943000000    -1.686000000     0.731000000
H     7.275000000    -1.887000000    -0.284000000
C     7.790000000    -1.482000000     1.814000000
H     8.859000000    -1.407000000     1.634000000
C     7.221000000    -1.230000000     3.065000000
H     7.942000000    -0.963000000     3.834000000
C     5.821000000    -1.488000000     3.223000000
C     5.020000000    -1.781000000     2.157000000
H     3.956000000    -1.916000000     2.339000000
C     1.359000000    -2.005000000    -1.969000000
H     1.679000000    -2.602000000    -2.819000000
C     0.979000000    -0.658000000    -2.105000000
H     0.873000000    -0.254000000    -3.108000000
C     0.710000000     0.142000000    -0.983000000
H     0.334000000     1.191000000    -1.064000000
C     0.939000000    -0.406000000     0.294000000
H     0.766000000     0.267000000     1.130000000
C     1.472000000    -1.715000000     0.458000000
H     1.579000000    -2.174000000     1.438000000
C     1.574000000    -2.509000000    -0.663000000
C     2.115000000    -3.871000000    -0.510000000
O     2.305000000    -4.279000000     0.646000000
O     2.401000000    -4.489000000    -1.528000000
O     6.598000000    -5.018000000    -2.220000000
H     7.367000000    -5.124000000    -1.661000000
H     6.852000000    -4.346000000    -2.852000000
O     1.142000000    -7.419000000    -2.800000000
H     0.548000000    -6.673000000    -2.884000000
H     1.886000000    -7.076000000    -2.305000000
O     5.097000000    -5.093000000     0.249000000
H     4.318000000    -4.544000000     0.338000000
H     5.498000000    -4.808000000    -0.572000000
O     3.138000000    -5.126000000     2.964000000
H     2.985000000    -4.789000000     2.081000000
H     2.267000000    -5.161000000     3.361000000
O    -2.232000000    -6.685000000    -3.748000000
H    -1.690000000    -6.084000000    -3.237000000
H    -1.962000000    -6.539000000    -4.655000000
O     0.367000000    -5.429000000     2.043000000
H    -0.364000000    -5.440000000     1.425000000
H     1.086000000    -5.025000000     1.558000000
O    -1.595000000    -5.830000000     0.311000000
H    -2.220000000    -6.414000000     0.742000000
H    -1.459000000    -6.221000000    -0.553000000
O    -1.451000000    -8.260000000    -1.076000000
H    -1.334000000    -8.659000000    -1.938000000
H    -2.344000000    -8.493000000    -0.823000000
O     3.977000000    -7.597000000     2.014000000
H     3.840000000    -6.880000000     2.633000000
H     4.137000000    -7.162000000     1.176000000
O     7.114000000    -7.110000000     1.081000000
H     7.925000000    -6.983000000     0.588000000
H     6.675000000    -6.261000000     1.041000000
O     6.027000000    -7.777000000    -1.982000000
H     6.349000000    -6.875000000    -2.001000000
H     5.265000000    -7.747000000    -1.403000000
O     3.852000000   -10.494000000    -0.027000000
H     4.720000000   -10.282000000     0.316000000
H     3.616000000    -9.740000000    -0.567000000
O     1.000000000    -7.705000000     0.444000000
H     0.791000000    -7.189000000     1.222000000
H     0.213000000    -7.650000000    -0.098000000
O     4.121000000    -5.398000000    -3.299000000
H     3.488000000    -5.022000000    -2.687000000
H     4.961000000    -5.021000000    -3.037000000
O     0.552000000    -6.582000000     4.497000000
H     0.586000000    -6.379000000     3.562000000
H     0.342000000    -7.516000000     4.531000000
O     3.399000000    -7.139000000    -0.863000000
H     2.550000000    -7.349000000    -0.474000000
H     3.513000000    -6.203000000    -0.699000000
O     5.836000000    -4.529000000     3.195000000
H     5.820000000    -3.665000000     2.783000000
H     4.941000000    -4.855000000     3.104000000
O     4.928000000    -7.898000000    -4.621000000
H     4.360000000    -7.151000000    -4.430000000
H     5.494000000    -7.971000000    -3.852000000
O     0.028000000    -4.890000000    -2.741000000
H     0.921000000    -4.929000000    -2.399000000
H    -0.218000000    -3.969000000    -2.663000000
