215
-1452.12770
C     3.469000000     1.960000000    -2.880000000
H     3.940000000     1.174000000    -3.464000000
C     3.255000000     1.904000000    -1.517000000
C     2.716000000     2.990000000    -0.827000000
H     2.611000000     2.867000000     0.248000000
C     3.738000000     0.657000000    -0.741000000
O     4.396000000    -0.298000000    -1.524000000
H     2.751000000     0.260000000    -0.461000000
O     4.556000000     1.001000000     0.402000000
C     4.170000000     0.444000000     1.573000000
C     3.666000000     1.269000000     2.584000000
H     3.589000000     2.335000000     2.382000000
C     3.061000000     0.815000000     3.754000000
O     2.302000000     1.695000000     4.535000000
C     3.012000000    -0.584000000     3.915000000
C     2.376000000    -1.257000000     5.135000000
H     2.973000000    -2.150000000     5.329000000
C     1.007000000    -1.567000000     4.666000000
C     0.777000000    -2.850000000     4.080000000
H     1.506000000    -3.631000000     3.881000000
H     2.489000000    -0.582000000     5.986000000
C     3.665000000    -1.443000000     3.013000000
H     3.793000000    -2.510000000     3.174000000
C     4.289000000    -0.928000000     1.853000000
C     5.021000000    -1.927000000     0.912000000
H     5.444000000    -2.793000000     1.424000000
H     5.926000000    -1.428000000     0.558000000
C     4.187000000    -2.440000000    -0.303000000
C     3.581000000    -3.676000000    -0.208000000
H     3.667000000    -4.291000000     0.684000000
C     3.947000000    -1.626000000    -1.423000000
C     3.122000000    -2.030000000    -2.482000000
H     2.925000000    -1.345000000    -3.303000000
C     2.618000000    -3.321000000    -2.432000000
O     1.673000000    -3.700000000    -3.377000000
C     0.310000000    -3.292000000    -3.045000000
C    -0.351000000    -2.671000000    -4.296000000
C    -1.778000000    -2.478000000    -4.317000000
H    -2.412000000    -2.821000000    -3.504000000
C     0.416000000    -1.886000000    -5.240000000
H     1.499000000    -1.937000000    -5.159000000
O    -0.311000000    -4.522000000    -2.637000000
H     0.306000000    -2.545000000    -2.238000000
C     2.773000000    -4.167000000    -1.265000000
C     1.939000000    -5.404000000    -1.034000000
H     2.406000000    -6.099000000    -0.333000000
H     1.738000000    -5.981000000    -1.939000000
C     0.627000000    -4.978000000    -0.463000000
C     0.375000000    -5.152000000     0.944000000
H     1.179000000    -5.535000000     1.566000000
C    -0.447000000    -4.679000000    -1.268000000
C    -1.647000000    -4.207000000    -0.739000000
H    -2.538000000    -3.930000000    -1.296000000
C    -1.790000000    -4.177000000     0.681000000
O    -2.965000000    -3.591000000     1.173000000
C    -2.902000000    -2.271000000     1.687000000
C    -4.021000000    -1.423000000     1.144000000
C    -4.798000000    -1.947000000     0.106000000
H    -4.776000000    -3.015000000    -0.093000000
C    -4.039000000    -0.047000000     1.412000000
H    -3.413000000     0.300000000     2.231000000
O    -2.750000000    -2.387000000     3.157000000
H    -1.991000000    -1.798000000     1.293000000
C    -0.768000000    -4.633000000     1.561000000
C    -0.797000000    -4.501000000     3.054000000
H    -0.082000000    -5.192000000     3.507000000
H    -1.781000000    -4.819000000     3.404000000
C    -0.484000000    -3.131000000     3.637000000
C    -1.484000000    -2.149000000     3.625000000
C    -1.214000000    -0.856000000     4.142000000
H    -1.971000000    -0.076000000     4.130000000
C    -0.011000000    -0.548000000     4.733000000
O     0.243000000     0.700000000     5.322000000
C     0.890000000     1.599000000     4.369000000
H     0.740000000     1.252000000     3.336000000
C     0.305000000     2.985000000     4.454000000
C     1.071000000     4.112000000     4.116000000
H     2.111000000     4.045000000     3.807000000
C    -1.059000000     3.166000000     4.516000000
H    -1.606000000     2.251000000     4.729000000
C    -1.669000000     4.406000000     4.550000000
O    -3.070000000     4.583000000     4.709000000
C    -0.872000000     5.566000000     4.313000000
H    -1.390000000     6.518000000     4.238000000
C     0.500000000     5.392000000     4.155000000
O     1.277000000     6.474000000     3.803000000
C     1.896000000     6.544000000     2.584000000
C     1.367000000     5.872000000     1.441000000
H     0.383000000     5.411000000     1.407000000
C     3.074000000     7.258000000     2.557000000
H     3.421000000     7.705000000     3.485000000
C     3.859000000     7.260000000     1.391000000
H     4.798000000     7.794000000     1.270000000
C     3.414000000     6.498000000     0.276000000
H     3.985000000     6.546000000    -0.647000000
C     2.154000000     5.869000000     0.326000000
O     1.784000000     5.279000000    -0.838000000
C     2.382000000     4.173000000    -1.505000000
C     2.560000000     4.163000000    -2.903000000
H     2.219000000     5.040000000    -3.447000000
C     3.073000000     3.077000000    -3.618000000
O     3.039000000     3.150000000    -4.965000000
C     3.087000000     2.005000000    -5.706000000
C     1.877000000     1.385000000    -5.969000000
H     0.996000000     1.799000000    -5.484000000
C     4.230000000     1.551000000    -6.446000000
H     5.162000000     2.065000000    -6.226000000
C     4.094000000     0.544000000    -7.371000000
H     4.913000000     0.232000000    -8.014000000
C     2.869000000    -0.085000000    -7.436000000
H     2.759000000    -0.834000000    -8.216000000
C     1.743000000     0.303000000    -6.779000000
O     0.584000000    -0.281000000    -7.085000000
C    -0.161000000    -1.030000000    -6.159000000
C    -1.547000000    -0.955000000    -6.187000000
H    -2.017000000    -0.269000000    -6.886000000
C    -2.355000000    -1.657000000    -5.333000000
O    -3.747000000    -1.437000000    -5.340000000
C    -4.586000000    -2.123000000    -4.583000000
C    -5.125000000    -1.480000000    -3.458000000
H    -4.886000000    -0.422000000    -3.377000000
C    -4.969000000    -3.446000000    -4.965000000
H    -4.571000000    -3.873000000    -5.882000000
C    -5.692000000    -4.154000000    -4.037000000
H    -5.977000000    -5.130000000    -4.421000000
C    -6.106000000    -3.588000000    -2.831000000
H    -6.636000000    -4.172000000    -2.083000000
C    -6.021000000    -2.213000000    -2.588000000
O    -6.514000000    -1.591000000    -1.450000000
C    -5.748000000    -1.141000000    -0.460000000
C    -5.844000000     0.192000000    -0.091000000
H    -6.619000000     0.832000000    -0.505000000
C    -5.032000000     0.721000000     0.911000000
O    -5.308000000     2.014000000     1.432000000
C    -5.125000000     2.327000000     2.753000000
C    -6.106000000     1.959000000     3.692000000
H    -6.956000000     1.382000000     3.335000000
C    -5.934000000     2.318000000     5.078000000
H    -6.624000000     1.929000000     5.823000000
C    -4.911000000     3.237000000     5.421000000
H    -4.879000000     3.648000000     6.427000000
C    -3.958000000     3.587000000     4.428000000
C    -4.064000000     3.190000000     3.120000000
H    -3.458000000     3.539000000     2.288000000
C    -2.072000000     0.392000000    -1.171000000
H    -2.554000000    -0.196000000    -1.948000000
C    -1.083000000    -0.209000000    -0.510000000
H    -0.713000000    -1.189000000    -0.799000000
C    -0.429000000     0.403000000     0.511000000
H     0.443000000    -0.031000000     1.048000000
C    -0.706000000     1.760000000     0.787000000
H    -0.221000000     2.342000000     1.567000000
C    -1.695000000     2.371000000     0.063000000
H    -1.927000000     3.420000000     0.226000000
C    -2.353000000     1.705000000    -0.976000000
C    -3.393000000     2.485000000    -1.845000000
O    -3.597000000     3.632000000    -1.673000000
O    -3.699000000     2.015000000    -2.912000000
O    -1.716000000     6.193000000    -0.926000000
H    -2.579000000     5.792000000    -1.032000000
H    -1.141000000     5.673000000    -1.487000000
O    -0.779000000     8.929000000    -1.992000000
H    -1.142000000     8.060000000    -1.822000000
H    -0.062000000     9.017000000    -1.365000000
O    -7.907000000     1.840000000    -5.870000000
H    -7.246000000     2.220000000    -5.292000000
H    -7.507000000     1.862000000    -6.739000000
O    -1.710000000     7.289000000     1.532000000
H    -2.585000000     7.346000000     1.915000000
H    -1.828000000     6.759000000     0.744000000
O    -5.073000000     5.318000000    -0.349000000
H    -4.454000000     4.788000000    -0.852000000
H    -5.920000000     5.155000000    -0.763000000
O    -0.330000000     3.824000000    -6.512000000
H    -0.435000000     4.681000000    -6.099000000
H    -1.079000000     3.749000000    -7.103000000
O    -5.932000000     2.083000000    -7.707000000
H    -5.571000000     2.518000000    -8.480000000
H    -5.560000000     2.563000000    -6.967000000
O    -4.528000000     7.324000000    -4.110000000
H    -4.089000000     6.476000000    -4.038000000
H    -5.461000000     7.116000000    -4.053000000
O    -6.185000000     2.703000000    -3.569000000
H    -5.269000000     2.515000000    -3.362000000
H    -6.416000000     3.432000000    -2.994000000
O    -0.374000000     6.634000000    -5.468000000
H    -1.038000000     7.007000000    -6.048000000
H     0.141000000     7.388000000    -5.178000000
O    -2.736000000     4.355000000    -7.750000000
H    -3.067000000     3.844000000    -7.012000000
H    -3.496000000     4.475000000    -8.320000000
O    -7.226000000     4.532000000     1.957000000
H    -6.351000000     4.920000000     1.957000000
H    -7.341000000     4.201000000     1.067000000
O    -8.291000000    -0.141000000    -3.589000000
H    -7.534000000     0.031000000    -3.029000000
H    -8.251000000     0.540000000    -4.261000000
O    -7.237000000     5.079000000    -2.351000000
H    -7.619000000     5.382000000    -3.175000000
H    -7.916000000     5.244000000    -1.697000000
O    -3.197000000     5.094000000    -3.719000000
H    -3.591000000     4.451000000    -3.128000000
H    -2.254000000     4.969000000    -3.614000000
O    -3.705000000     3.278000000    -5.551000000
H    -3.930000000     2.450000000    -5.129000000
H    -3.363000000     3.824000000    -4.843000000
O    -4.468000000     6.632000000     1.970000000
H    -4.763000000     7.511000000     1.732000000
H    -4.461000000     6.150000000     1.143000000
O    -0.364000000     5.252000000    -3.128000000
H     0.050000000     4.404000000    -3.287000000
H    -0.151000000     5.772000000    -3.903000000
O    -0.217000000     2.418000000    -3.200000000
H    -0.227000000     2.052000000    -2.316000000
H    -1.042000000     2.127000000    -3.589000000
