215
-1444.84850
C    -4.755000000    -0.224000000     0.348000000
H    -4.896000000     0.219000000    -0.635000000
C    -4.152000000     0.599000000     1.326000000
C    -4.019000000     0.098000000     2.633000000
H    -3.502000000     0.636000000     3.424000000
C    -3.530000000     1.939000000     0.884000000
O    -4.266000000     2.722000000    -0.048000000
H    -2.523000000     1.769000000     0.476000000
O    -3.283000000     2.697000000     2.087000000
C    -2.028000000     3.300000000     2.262000000
C    -1.256000000     2.897000000     3.339000000
H    -1.540000000     2.103000000     4.025000000
C     0.058000000     3.304000000     3.455000000
O     0.881000000     2.690000000     4.433000000
C     0.571000000     4.193000000     2.535000000
C     2.026000000     4.608000000     2.603000000
H     2.089000000     5.616000000     2.189000000
C     2.908000000     3.726000000     1.774000000
C     2.971000000     3.901000000     0.379000000
H     2.512000000     4.827000000     0.042000000
H     2.361000000     4.793000000     3.626000000
C    -0.247000000     4.741000000     1.584000000
H     0.180000000     5.417000000     0.847000000
C    -1.586000000     4.348000000     1.432000000
C    -2.483000000     4.945000000     0.379000000
H    -2.047000000     5.894000000     0.060000000
H    -3.496000000     5.079000000     0.766000000
C    -2.571000000     4.086000000    -0.897000000
C    -1.658000000     4.337000000    -1.958000000
H    -0.995000000     5.183000000    -1.797000000
C    -3.543000000     3.098000000    -1.133000000
C    -3.475000000     2.239000000    -2.212000000
H    -4.040000000     1.311000000    -2.266000000
C    -2.497000000     2.436000000    -3.185000000
O    -2.367000000     1.502000000    -4.237000000
C    -1.333000000     0.487000000    -4.204000000
C    -1.874000000    -0.824000000    -4.783000000
C    -0.977000000    -1.887000000    -5.010000000
H     0.055000000    -1.592000000    -5.181000000
C    -3.276000000    -1.122000000    -4.733000000
H    -3.960000000    -0.294000000    -4.562000000
O    -0.174000000     0.913000000    -4.917000000
H    -0.975000000     0.151000000    -3.220000000
C    -1.616000000     3.470000000    -3.082000000
C    -0.478000000     3.677000000    -4.143000000
H    -0.333000000     4.758000000    -4.104000000
H    -0.964000000     3.485000000    -5.102000000
C     0.704000000     2.880000000    -3.802000000
C     1.750000000     3.395000000    -2.986000000
H     1.638000000     4.407000000    -2.604000000
C     0.809000000     1.575000000    -4.237000000
C     1.871000000     0.828000000    -3.874000000
H     1.827000000    -0.231000000    -4.117000000
C     2.883000000     1.319000000    -3.119000000
O     3.901000000     0.521000000    -2.735000000
C     4.047000000     0.073000000    -1.338000000
C     4.375000000    -1.390000000    -1.246000000
C     3.672000000    -2.284000000    -2.065000000
H     2.828000000    -1.909000000    -2.638000000
C     5.203000000    -1.993000000    -0.259000000
H     5.750000000    -1.345000000     0.421000000
O     4.939000000     0.906000000    -0.487000000
H     3.016000000     0.209000000    -0.981000000
C     2.849000000     2.625000000    -2.670000000
C     3.927000000     3.230000000    -1.802000000
H     4.003000000     4.294000000    -2.034000000
H     4.876000000     2.806000000    -2.136000000
C     3.710000000     2.984000000    -0.366000000
C     4.295000000     1.855000000     0.269000000
C     4.207000000     1.692000000     1.600000000
H     4.783000000     0.872000000     2.022000000
C     3.389000000     2.567000000     2.333000000
O     3.071000000     2.104000000     3.625000000
C     1.724000000     1.634000000     3.936000000
H     1.353000000     1.340000000     2.943000000
C     1.658000000     0.295000000     4.745000000
C     0.547000000    -0.056000000     5.486000000
H    -0.223000000     0.687000000     5.678000000
C     2.568000000    -0.702000000     4.488000000
H     3.435000000    -0.538000000     3.853000000
C     2.494000000    -1.981000000     5.072000000
O     3.464000000    -2.994000000     4.974000000
C     1.405000000    -2.239000000     5.938000000
H     1.350000000    -3.224000000     6.395000000
C     0.423000000    -1.270000000     6.166000000
O    -0.548000000    -1.445000000     7.084000000
C    -1.892000000    -1.110000000     6.839000000
C    -2.477000000    -1.561000000     5.616000000
H    -1.910000000    -2.126000000     4.881000000
C    -2.593000000    -0.432000000     7.756000000
H    -2.078000000    -0.132000000     8.665000000
C    -3.897000000     0.008000000     7.429000000
H    -4.395000000     0.674000000     8.129000000
C    -4.565000000    -0.484000000     6.263000000
H    -5.555000000    -0.139000000     5.977000000
C    -3.827000000    -1.290000000     5.388000000
O    -4.448000000    -1.683000000     4.159000000
C    -4.494000000    -1.168000000     2.896000000
C    -5.145000000    -1.903000000     1.918000000
H    -5.538000000    -2.879000000     2.189000000
C    -5.242000000    -1.470000000     0.567000000
O    -6.046000000    -2.202000000    -0.274000000
C    -6.348000000    -1.897000000    -1.591000000
C    -5.488000000    -2.385000000    -2.550000000
H    -4.683000000    -3.020000000    -2.189000000
C    -7.460000000    -1.127000000    -1.931000000
H    -8.090000000    -0.649000000    -1.184000000
C    -7.732000000    -0.786000000    -3.272000000
H    -8.589000000    -0.194000000    -3.582000000
C    -6.916000000    -1.411000000    -4.234000000
H    -6.971000000    -1.085000000    -5.269000000
C    -5.801000000    -2.171000000    -3.900000000
O    -5.055000000    -2.755000000    -4.912000000
C    -3.724000000    -2.436000000    -5.087000000
C    -2.827000000    -3.429000000    -5.285000000
H    -3.189000000    -4.437000000    -5.471000000
C    -1.486000000    -3.141000000    -5.232000000
O    -0.643000000    -4.230000000    -5.373000000
C     0.743000000    -4.106000000    -5.305000000
C     1.362000000    -4.364000000    -4.111000000
H     0.724000000    -4.723000000    -3.307000000
C     1.474000000    -3.650000000    -6.366000000
H     0.896000000    -3.527000000    -7.279000000
C     2.790000000    -3.292000000    -6.284000000
H     3.320000000    -2.872000000    -7.136000000
C     3.386000000    -3.574000000    -5.057000000
H     4.463000000    -3.450000000    -4.974000000
C     2.675000000    -4.120000000    -4.045000000
O     3.312000000    -4.501000000    -2.951000000
C     3.983000000    -3.659000000    -2.143000000
C     4.805000000    -4.152000000    -1.149000000
H     5.099000000    -5.198000000    -1.153000000
C     5.267000000    -3.340000000    -0.146000000
O     5.962000000    -3.877000000     0.906000000
C     5.960000000    -3.369000000     2.194000000
C     7.154000000    -2.968000000     2.822000000
H     8.081000000    -2.855000000     2.265000000
C     7.048000000    -2.532000000     4.167000000
H     7.928000000    -2.135000000     4.666000000
C     5.825000000    -2.506000000     4.882000000
H     5.687000000    -2.136000000     5.895000000
C     4.607000000    -2.829000000     4.206000000
C     4.736000000    -3.285000000     2.864000000
H     3.917000000    -3.639000000     2.243000000
C     0.091000000    -2.375000000    -0.738000000
H     0.192000000    -3.303000000    -1.295000000
C     0.384000000    -1.162000000    -1.312000000
H     0.602000000    -1.049000000    -2.371000000
C     0.277000000     0.023000000    -0.573000000
H     0.475000000     0.936000000    -0.975000000
C    -0.083000000    -0.014000000     0.748000000
H    -0.015000000     0.886000000     1.355000000
C    -0.260000000    -1.241000000     1.347000000
H    -0.540000000    -1.298000000     2.396000000
C    -0.169000000    -2.456000000     0.619000000
C    -0.288000000    -3.850000000     1.282000000
O    -0.647000000    -3.909000000     2.425000000
O    -0.047000000    -4.915000000     0.693000000
O    -3.509000000    -8.404000000     1.560000000
H    -3.456000000    -7.629000000     2.118000000
H    -4.211000000    -8.206000000     0.940000000
O    -0.861000000    -6.229000000    -1.565000000
H    -0.762000000    -5.637000000    -0.819000000
H    -0.435000000    -7.039000000    -1.287000000
O     1.728000000    -5.088000000     3.658000000
H     2.317000000    -4.412000000     3.994000000
H     0.855000000    -4.702000000     3.730000000
O    -3.790000000    -6.322000000     4.634000000
H    -3.222000000    -5.812000000     5.213000000
H    -3.891000000    -7.164000000     5.079000000
O     2.566000000    -7.451000000     6.360000000
H     2.273000000    -7.440000000     7.271000000
H     1.787000000    -7.216000000     5.856000000
O    -4.749000000    -5.701000000    -0.122000000
H    -4.217000000    -5.869000000    -0.899000000
H    -4.124000000    -5.393000000     0.535000000
O     0.797000000   -10.093000000     1.486000000
H     1.159000000    -9.209000000     1.435000000
H     0.458000000   -10.265000000     0.607000000
O    -1.757000000    -4.403000000     7.454000000
H    -2.270000000    -5.211000000     7.457000000
H    -1.312000000    -4.404000000     6.606000000
O    -0.196000000    -7.600000000     5.280000000
H    -0.060000000    -7.655000000     4.334000000
H    -0.796000000    -8.319000000     5.477000000
O     3.789000000    -7.934000000     2.061000000
H     4.166000000    -8.219000000     1.229000000
H     3.243000000    -7.182000000     1.831000000
O    -1.588000000    -9.949000000     3.035000000
H    -0.798000000    -9.927000000     2.495000000
H    -2.240000000    -9.468000000     2.525000000
O    -6.350000000    -5.889000000     3.616000000
H    -6.357000000    -5.305000000     2.858000000
H    -5.427000000    -5.956000000     3.859000000
O     3.246000000    -7.378000000    -0.801000000
H     2.469000000    -7.422000000    -1.358000000
H     3.158000000    -6.549000000    -0.332000000
O    -0.659000000    -7.065000000    -4.253000000
H    -1.408000000    -7.657000000    -4.177000000
H    -0.805000000    -6.405000000    -3.576000000
O    -3.099000000    -5.298000000     2.108000000
H    -3.290000000    -5.461000000     3.032000000
H    -2.505000000    -4.548000000     2.115000000
O     0.125000000    -7.203000000     2.740000000
H     0.790000000    -6.579000000     3.030000000
H    -0.304000000    -6.770000000     2.002000000
O     2.477000000    -5.440000000     1.033000000
H     2.572000000    -5.204000000     1.956000000
H     1.551000000    -5.288000000     0.841000000
O    -3.513000000    -6.762000000    -2.250000000
H    -3.177000000    -7.381000000    -2.899000000
H    -2.759000000    -6.218000000    -2.026000000
O    -1.394000000    -4.906000000     4.897000000
H    -1.111000000    -4.562000000     4.050000000
H    -1.008000000    -5.780000000     4.941000000
