215
-1430.70154
C    -5.000000000    -1.341000000     0.338000000
H    -5.688000000    -0.841000000    -0.340000000
C    -4.130000000    -0.692000000     1.227000000
C    -3.395000000    -1.412000000     2.140000000
H    -2.810000000    -0.955000000     2.935000000
C    -3.898000000     0.800000000     1.056000000
O    -4.787000000     1.421000000     0.137000000
H    -2.868000000     0.892000000     0.680000000
O    -3.879000000     1.477000000     2.377000000
C    -2.805000000     2.344000000     2.624000000
C    -1.871000000     2.046000000     3.523000000
H    -1.993000000     1.078000000     4.004000000
C    -0.731000000     2.723000000     3.743000000
O     0.174000000     2.131000000     4.535000000
C    -0.567000000     3.914000000     3.102000000
C     0.788000000     4.650000000     3.189000000
H     0.600000000     5.661000000     2.823000000
C     1.765000000     4.021000000     2.177000000
C     1.995000000     4.546000000     0.937000000
H     1.487000000     5.464000000     0.652000000
H     1.195000000     4.573000000     4.199000000
C    -1.534000000     4.414000000     2.207000000
H    -1.352000000     5.292000000     1.592000000
C    -2.688000000     3.577000000     1.994000000
C    -3.727000000     4.039000000     0.958000000
H    -3.674000000     5.120000000     0.817000000
H    -4.746000000     3.873000000     1.314000000
C    -3.544000000     3.402000000    -0.412000000
C    -2.659000000     4.007000000    -1.316000000
H    -2.102000000     4.862000000    -0.943000000
C    -4.225000000     2.284000000    -0.758000000
C    -4.037000000     1.697000000    -1.995000000
H    -4.502000000     0.767000000    -2.310000000
C    -3.175000000     2.295000000    -2.921000000
O    -2.767000000     1.537000000    -4.010000000
C    -1.599000000     0.787000000    -3.770000000
C    -1.760000000    -0.660000000    -4.056000000
C    -0.598000000    -1.457000000    -4.096000000
H     0.394000000    -1.013000000    -4.063000000
C    -3.027000000    -1.275000000    -4.258000000
H    -3.946000000    -0.699000000    -4.337000000
O    -0.536000000     1.418000000    -4.557000000
H    -1.244000000     0.936000000    -2.740000000
C    -2.491000000     3.455000000    -2.552000000
C    -1.512000000     4.144000000    -3.450000000
H    -1.502000000     5.232000000    -3.355000000
H    -1.850000000     3.931000000    -4.466000000
C    -0.075000000     3.569000000    -3.346000000
C     0.830000000     4.249000000    -2.630000000
H     0.669000000     5.207000000    -2.143000000
C     0.299000000     2.293000000    -3.962000000
C     1.583000000     1.873000000    -3.785000000
H     1.878000000     0.924000000    -4.225000000
C     2.484000000     2.552000000    -2.948000000
O     3.633000000     1.944000000    -2.690000000
C     3.853000000     1.283000000    -1.438000000
C     4.718000000     0.012000000    -1.505000000
C     4.760000000    -0.767000000    -2.677000000
H     4.200000000    -0.452000000    -3.554000000
C     5.281000000    -0.533000000    -0.352000000
H     5.192000000    -0.009000000     0.597000000
O     4.393000000     2.146000000    -0.482000000
H     2.853000000     0.996000000    -1.080000000
C     2.118000000     3.782000000    -2.411000000
C     3.013000000     4.544000000    -1.491000000
H     2.695000000     5.587000000    -1.445000000
H     4.043000000     4.448000000    -1.842000000
C     2.873000000     3.993000000    -0.037000000
C     3.629000000     2.893000000     0.366000000
C     3.403000000     2.343000000     1.641000000
H     3.973000000     1.457000000     1.910000000
C     2.496000000     2.882000000     2.557000000
O     2.301000000     2.186000000     3.710000000
C     1.131000000     1.410000000     3.877000000
H     0.812000000     1.125000000     2.863000000
C     1.506000000     0.119000000     4.635000000
C     0.607000000    -0.503000000     5.530000000
H    -0.380000000    -0.062000000     5.647000000
C     2.772000000    -0.450000000     4.367000000
H     3.386000000     0.046000000     3.619000000
C     3.148000000    -1.604000000     5.061000000
O     4.279000000    -2.296000000     4.660000000
C     2.195000000    -2.242000000     5.848000000
H     2.477000000    -3.161000000     6.355000000
C     0.898000000    -1.682000000     6.110000000
O     0.008000000    -2.492000000     6.799000000
C    -1.237000000    -2.559000000     6.272000000
C    -1.328000000    -2.967000000     4.985000000
H    -0.479000000    -3.236000000     4.363000000
C    -2.325000000    -2.173000000     7.056000000
H    -2.141000000    -1.799000000     8.060000000
C    -3.603000000    -2.203000000     6.531000000
H    -4.485000000    -1.889000000     7.083000000
C    -3.720000000    -2.578000000     5.213000000
H    -4.668000000    -2.668000000     4.688000000
C    -2.614000000    -2.922000000     4.437000000
O    -2.774000000    -3.410000000     3.130000000
C    -3.454000000    -2.776000000     2.156000000
C    -4.327000000    -3.481000000     1.294000000
H    -4.437000000    -4.563000000     1.314000000
C    -5.139000000    -2.740000000     0.440000000
O    -6.024000000    -3.503000000    -0.303000000
C    -6.240000000    -3.358000000    -1.681000000
C    -5.086000000    -3.375000000    -2.465000000
H    -4.088000000    -3.427000000    -2.037000000
C    -7.516000000    -3.306000000    -2.293000000
H    -8.319000000    -3.409000000    -1.567000000
C    -7.639000000    -3.272000000    -3.619000000
H    -8.618000000    -3.210000000    -4.088000000
C    -6.520000000    -3.302000000    -4.451000000
H    -6.684000000    -3.228000000    -5.523000000
C    -5.250000000    -3.300000000    -3.893000000
O    -4.143000000    -3.294000000    -4.777000000
C    -2.994000000    -2.674000000    -4.454000000
C    -1.868000000    -3.420000000    -4.540000000
H    -1.985000000    -4.490000000    -4.691000000
C    -0.661000000    -2.827000000    -4.323000000
O     0.502000000    -3.630000000    -4.281000000
C     1.716000000    -3.142000000    -4.878000000
C     2.889000000    -3.137000000    -4.081000000
H     2.861000000    -3.308000000    -3.007000000
C     1.821000000    -2.807000000    -6.217000000
H     0.938000000    -2.697000000    -6.842000000
C     3.037000000    -2.396000000    -6.729000000
H     3.104000000    -2.025000000    -7.749000000
C     4.210000000    -2.549000000    -6.027000000
H     5.197000000    -2.343000000    -6.434000000
C     4.170000000    -2.876000000    -4.619000000
O     5.346000000    -2.850000000    -3.840000000
C     5.412000000    -2.026000000    -2.769000000
C     6.049000000    -2.418000000    -1.647000000
H     6.645000000    -3.321000000    -1.744000000
C     6.005000000    -1.780000000    -0.448000000
O     6.713000000    -2.273000000     0.599000000
C     6.577000000    -1.864000000     1.865000000
C     7.354000000    -0.804000000     2.325000000
H     8.119000000    -0.371000000     1.685000000
C     7.120000000    -0.223000000     3.542000000
H     7.792000000     0.591000000     3.800000000
C     6.048000000    -0.724000000     4.354000000
H     5.861000000    -0.410000000     5.378000000
C     5.326000000    -1.834000000     3.894000000
C     5.516000000    -2.316000000     2.617000000
H     4.871000000    -3.112000000     2.255000000
C     1.414000000    -2.983000000    -0.349000000
H     1.857000000    -3.373000000    -1.262000000
C     0.582000000    -1.868000000    -0.498000000
H     0.330000000    -1.621000000    -1.526000000
C     0.019000000    -1.317000000     0.629000000
H    -0.921000000    -0.796000000     0.462000000
C     0.369000000    -1.730000000     1.884000000
H    -0.077000000    -1.231000000     2.740000000
C     1.330000000    -2.697000000     2.054000000
H     1.458000000    -3.060000000     3.071000000
C     1.826000000    -3.443000000     0.966000000
C     2.718000000    -4.587000000     1.166000000
O     3.021000000    -5.123000000     2.239000000
O     3.018000000    -5.272000000     0.190000000
O    -1.320000000    -5.942000000    -1.453000000
H    -0.885000000    -6.310000000    -2.221000000
H    -2.250000000    -5.941000000    -1.682000000
O     0.935000000    -6.851000000    -0.498000000
H     0.148000000    -6.566000000    -0.962000000
H     1.449000000    -6.051000000    -0.386000000
O     6.035000000    -5.534000000    -0.248000000
H     5.221000000    -5.140000000     0.065000000
H     5.788000000    -5.987000000    -1.054000000
O     7.582000000    -6.335000000     3.922000000
H     7.839000000    -6.745000000     3.096000000
H     6.705000000    -5.990000000     3.754000000
O    -0.125000000    -7.886000000     4.068000000
H     0.459000000    -8.644000000     4.087000000
H     0.456000000    -7.133000000     4.166000000
O     7.534000000    -7.454000000     1.192000000
H     8.250000000    -7.802000000     0.661000000
H     7.198000000    -6.715000000     0.686000000
O     5.211000000    -5.343000000     3.602000000
H     4.489000000    -5.313000000     2.975000000
H     4.790000000    -5.252000000     4.457000000
O     5.679000000    -9.896000000     1.498000000
H     4.809000000    -9.514000000     1.617000000
H     6.237000000    -9.153000000     1.269000000
O     5.627000000    -4.321000000     6.368000000
H     4.837000000    -4.786000000     6.643000000
H     5.303000000    -3.530000000     5.938000000
O     5.814000000    -8.922000000    -2.150000000
H     6.014000000    -7.987000000    -2.102000000
H     4.904000000    -8.987000000    -1.859000000
O     3.004000000    -9.037000000    -1.999000000
H     2.572000000    -9.869000000    -1.805000000
H     2.418000000    -8.373000000    -1.637000000
O     3.254000000    -8.098000000     1.157000000
H     3.472000000    -7.186000000     0.967000000
H     2.352000000    -8.197000000     0.852000000
O     3.433000000    -8.012000000     4.014000000
H     3.429000000    -7.935000000     3.060000000
H     2.870000000    -8.764000000     4.197000000
O     0.227000000    -9.626000000    -0.502000000
H    -0.686000000    -9.820000000    -0.286000000
H     0.302000000    -8.678000000    -0.393000000
O     5.487000000    -7.995000000     5.465000000
H     4.687000000    -7.935000000     4.943000000
H     6.177000000    -7.675000000     4.885000000
O    -2.284000000    -6.183000000     1.062000000
H    -1.720000000    -6.548000000     0.380000000
H    -2.333000000    -5.249000000     0.858000000
O     4.052000000    -6.145000000    -2.272000000
H     3.352000000    -6.651000000    -2.685000000
H     3.631000000    -5.721000000    -1.524000000
O     8.739000000    -4.290000000    -0.227000000
H     8.830000000    -3.392000000    -0.545000000
H     7.865000000    -4.319000000     0.161000000
O     2.771000000    -5.679000000     4.949000000
H     2.990000000    -6.592000000     4.762000000
H     2.415000000    -5.345000000     4.126000000
