215
-1439.81934
C    -5.585000000     0.124000000     0.212000000
H    -5.748000000     0.644000000    -0.729000000
C    -4.640000000     0.634000000     1.072000000
C    -4.424000000    -0.014000000     2.296000000
H    -3.660000000     0.453000000     2.911000000
C    -3.780000000     1.912000000     0.702000000
O    -4.398000000     2.621000000    -0.410000000
H    -2.810000000     1.530000000     0.349000000
O    -3.628000000     2.739000000     1.873000000
C    -2.352000000     3.354000000     2.118000000
C    -1.619000000     2.922000000     3.252000000
H    -2.084000000     2.129000000     3.832000000
C    -0.278000000     3.337000000     3.392000000
O     0.452000000     2.675000000     4.412000000
C     0.300000000     4.224000000     2.477000000
C     1.747000000     4.791000000     2.485000000
H     1.691000000     5.735000000     1.938000000
C     2.674000000     3.859000000     1.777000000
C     2.992000000     4.047000000     0.428000000
H     2.498000000     4.892000000    -0.045000000
H     2.053000000     4.960000000     3.519000000
C    -0.515000000     4.728000000     1.433000000
H    -0.182000000     5.472000000     0.714000000
C    -1.840000000     4.307000000     1.242000000
C    -2.730000000     4.987000000     0.189000000
H    -2.573000000     6.051000000     0.001000000
H    -3.777000000     4.994000000     0.502000000
C    -2.714000000     4.199000000    -1.189000000
C    -1.684000000     4.412000000    -2.110000000
H    -0.956000000     5.208000000    -1.980000000
C    -3.511000000     3.048000000    -1.334000000
C    -3.399000000     2.308000000    -2.513000000
H    -4.154000000     1.542000000    -2.669000000
C    -2.440000000     2.513000000    -3.460000000
O    -2.294000000     1.530000000    -4.488000000
C    -1.148000000     0.627000000    -4.168000000
C    -1.520000000    -0.855000000    -4.487000000
C    -0.594000000    -1.730000000    -5.110000000
H     0.453000000    -1.454000000    -5.204000000
C    -2.738000000    -1.345000000    -4.130000000
H    -3.448000000    -0.655000000    -3.682000000
O    -0.128000000     1.215000000    -5.023000000
H    -0.898000000     0.708000000    -3.100000000
C    -1.570000000     3.619000000    -3.246000000
C    -0.434000000     3.906000000    -4.229000000
H    -0.221000000     4.974000000    -4.313000000
H    -0.836000000     3.650000000    -5.212000000
C     0.812000000     3.029000000    -3.883000000
C     1.872000000     3.600000000    -3.125000000
H     1.804000000     4.651000000    -2.856000000
C     0.968000000     1.739000000    -4.400000000
C     2.106000000     0.989000000    -4.004000000
H     2.205000000    -0.082000000    -4.160000000
C     2.991000000     1.438000000    -3.060000000
O     3.889000000     0.454000000    -2.581000000
C     3.681000000     0.077000000    -1.207000000
C     3.988000000    -1.463000000    -0.914000000
C     3.503000000    -2.390000000    -1.775000000
H     3.140000000    -2.147000000    -2.770000000
C     4.602000000    -1.882000000     0.287000000
H     4.884000000    -1.046000000     0.923000000
O     4.545000000     0.876000000    -0.419000000
H     2.627000000     0.342000000    -1.039000000
C     2.915000000     2.810000000    -2.655000000
C     3.964000000     3.343000000    -1.764000000
H     4.120000000     4.412000000    -1.924000000
H     4.960000000     2.999000000    -2.049000000
C     3.689000000     3.097000000    -0.301000000
C     4.039000000     1.890000000     0.331000000
C     3.840000000     1.710000000     1.668000000
H     4.213000000     0.776000000     2.080000000
C     3.091000000     2.647000000     2.400000000
O     2.722000000     2.413000000     3.676000000
C     1.462000000     1.705000000     3.962000000
H     1.067000000     1.495000000     2.957000000
C     1.505000000     0.411000000     4.777000000
C     0.361000000    -0.325000000     5.175000000
H    -0.643000000     0.084000000     5.098000000
C     2.764000000    -0.153000000     5.112000000
H     3.710000000     0.255000000     4.765000000
C     2.873000000    -1.442000000     5.627000000
O     4.065000000    -2.020000000     5.877000000
C     1.747000000    -2.157000000     5.946000000
H     1.832000000    -3.124000000     6.436000000
C     0.501000000    -1.534000000     5.826000000
O    -0.659000000    -2.245000000     6.202000000
C    -1.990000000    -1.741000000     6.141000000
C    -2.841000000    -2.057000000     5.093000000
H    -2.711000000    -2.954000000     4.492000000
C    -2.251000000    -0.555000000     6.893000000
H    -1.539000000    -0.335000000     7.684000000
C    -3.429000000     0.087000000     6.607000000
H    -3.585000000     1.027000000     7.132000000
C    -4.382000000    -0.346000000     5.657000000
H    -5.321000000     0.163000000     5.456000000
C    -4.015000000    -1.389000000     4.858000000
O    -4.837000000    -1.886000000     3.859000000
C    -5.089000000    -1.207000000     2.616000000
C    -5.908000000    -1.804000000     1.658000000
H    -6.381000000    -2.781000000     1.725000000
C    -6.280000000    -1.083000000     0.506000000
O    -7.164000000    -1.584000000    -0.353000000
C    -6.860000000    -1.652000000    -1.683000000
C    -5.670000000    -2.325000000    -2.080000000
H    -4.935000000    -2.656000000    -1.351000000
C    -7.707000000    -1.192000000    -2.644000000
H    -8.673000000    -0.777000000    -2.370000000
C    -7.420000000    -1.354000000    -4.019000000
H    -8.006000000    -0.899000000    -4.814000000
C    -6.210000000    -1.993000000    -4.389000000
H    -5.862000000    -1.966000000    -5.418000000
C    -5.343000000    -2.454000000    -3.387000000
O    -4.194000000    -3.223000000    -3.681000000
C    -3.021000000    -2.718000000    -4.246000000
C    -2.119000000    -3.551000000    -4.879000000
H    -2.370000000    -4.605000000    -4.964000000
C    -0.900000000    -3.058000000    -5.222000000
O    -0.059000000    -4.062000000    -5.742000000
C     1.273000000    -4.259000000    -5.374000000
C     1.743000000    -4.198000000    -4.049000000
H     1.104000000    -3.961000000    -3.201000000
C     2.124000000    -4.615000000    -6.368000000
H     1.598000000    -4.719000000    -7.314000000
C     3.440000000    -4.803000000    -6.113000000
H     4.145000000    -5.073000000    -6.896000000
C     3.934000000    -4.770000000    -4.821000000
H     4.997000000    -4.929000000    -4.663000000
C     3.025000000    -4.458000000    -3.744000000
O     3.345000000    -4.724000000    -2.429000000
C     3.774000000    -3.725000000    -1.544000000
C     4.453000000    -4.125000000    -0.388000000
H     4.690000000    -5.180000000    -0.278000000
C     4.893000000    -3.182000000     0.537000000
O     5.642000000    -3.669000000     1.662000000
C     5.893000000    -2.997000000     2.813000000
C     7.182000000    -2.532000000     3.105000000
H     7.891000000    -2.480000000     2.282000000
C     7.428000000    -2.079000000     4.414000000
H     8.459000000    -1.789000000     4.601000000
C     6.384000000    -1.887000000     5.367000000
H     6.571000000    -1.452000000     6.345000000
C     5.108000000    -2.276000000     5.027000000
C     4.866000000    -2.858000000     3.777000000
H     3.836000000    -3.160000000     3.603000000
C     0.516000000    -2.218000000    -0.208000000
H     1.022000000    -2.746000000    -1.012000000
C     0.296000000    -0.815000000    -0.455000000
H     0.660000000    -0.313000000    -1.348000000
C    -0.372000000    -0.044000000     0.475000000
H    -0.471000000     1.069000000     0.231000000
C    -0.782000000    -0.672000000     1.730000000
H    -1.332000000    -0.090000000     2.465000000
C    -0.614000000    -2.057000000     1.966000000
H    -0.804000000    -2.539000000     2.922000000
C     0.070000000    -2.822000000     0.966000000
C     0.175000000    -4.305000000     1.219000000
O    -0.425000000    -4.810000000     2.139000000
O     0.802000000    -5.057000000     0.507000000
O    -1.727000000   -10.105000000    -0.183000000
H    -1.692000000   -10.031000000    -1.136000000
H    -2.287000000    -9.379000000     0.094000000
O    -2.782000000    -7.607000000     0.844000000
H    -2.054000000    -7.794000000     1.437000000
H    -2.851000000    -6.652000000     0.842000000
O    -0.298000000    -6.822000000    -4.481000000
H     0.573000000    -6.488000000    -4.695000000
H    -0.498000000    -6.439000000    -3.626000000
O    -0.605000000    -5.671000000    -1.627000000
H    -0.037000000    -5.449000000    -0.889000000
H    -0.517000000    -6.620000000    -1.720000000
O    -0.197000000    -5.353000000     5.178000000
H    -0.887000000    -4.984000000     5.730000000
H    -0.308000000    -4.917000000     4.333000000
O     5.879000000    -6.299000000     2.891000000
H     5.114000000    -5.888000000     3.295000000
H     5.977000000    -5.848000000     2.052000000
O    -4.316000000    -4.957000000     3.991000000
H    -5.013000000    -4.616000000     4.552000000
H    -4.112000000    -5.817000000     4.359000000
O    -0.582000000    -7.656000000     6.440000000
H    -0.477000000    -6.747000000     6.160000000
H    -0.286000000    -7.663000000     7.350000000
O    -5.180000000    -5.376000000    -0.129000000
H    -4.662000000    -4.920000000     0.533000000
H    -4.553000000    -5.589000000    -0.820000000
O     1.002000000    -9.612000000     0.652000000
H     0.119000000    -9.273000000     0.796000000
H     0.872000000   -10.416000000     0.150000000
O    -0.760000000    -9.293000000     4.420000000
H    -0.924000000    -8.708000000     5.159000000
H    -0.863000000    -8.739000000     3.647000000
O     2.287000000    -9.820000000     3.040000000
H     1.746000000    -9.426000000     2.356000000
H     2.772000000   -10.513000000     2.593000000
O     2.283000000    -7.592000000    -2.725000000
H     2.817000000    -8.386000000    -2.752000000
H     2.916000000    -6.882000000    -2.617000000
O    -0.379000000    -8.212000000    -2.151000000
H    -0.472000000    -8.964000000    -2.736000000
H     0.524000000    -7.921000000    -2.277000000
O    -3.082000000    -4.756000000     1.607000000
H    -3.500000000    -4.591000000     2.453000000
H    -2.143000000    -4.718000000     1.793000000
O     1.861000000    -7.214000000     1.419000000
H     1.650000000    -7.861000000     0.747000000
H     1.548000000    -6.384000000     1.060000000
O     3.023000000    -5.904000000     3.683000000
H     2.134000000    -5.926000000     4.037000000
H     2.962000000    -6.382000000     2.855000000
O    -3.233000000    -5.350000000    -1.964000000
H    -2.300000000    -5.324000000    -1.751000000
H    -3.410000000    -4.501000000    -2.370000000
O    -0.633000000    -7.419000000     2.581000000
H    -0.696000000    -6.464000000     2.553000000
H     0.217000000    -7.614000000     2.186000000
