215
-1423.60338
C    -5.586000000    -0.187000000     0.099000000
H    -5.666000000     0.318000000    -0.861000000
C    -4.851000000     0.322000000     1.245000000
C    -4.843000000    -0.389000000     2.474000000
H    -4.479000000     0.130000000     3.356000000
C    -4.074000000     1.618000000     1.087000000
O    -4.592000000     2.429000000    -0.019000000
H    -3.069000000     1.235000000     0.858000000
O    -3.949000000     2.439000000     2.239000000
C    -2.684000000     2.872000000     2.569000000
C    -1.935000000     2.165000000     3.577000000
H    -2.260000000     1.297000000     4.145000000
C    -0.669000000     2.639000000     3.893000000
O     0.173000000     1.818000000     4.659000000
C    -0.094000000     3.759000000     3.215000000
C     1.314000000     4.196000000     3.438000000
H     1.277000000     5.262000000     3.203000000
C     2.336000000     3.458000000     2.555000000
C     2.732000000     4.096000000     1.361000000
H     2.440000000     5.131000000     1.202000000
H     1.520000000     4.116000000     4.508000000
C    -0.877000000     4.377000000     2.220000000
H    -0.532000000     5.268000000     1.702000000
C    -2.139000000     3.978000000     1.892000000
C    -2.912000000     4.603000000     0.752000000
H    -2.503000000     5.615000000     0.721000000
H    -3.965000000     4.546000000     1.036000000
C    -2.789000000     3.842000000    -0.604000000
C    -1.803000000     4.317000000    -1.486000000
H    -1.152000000     5.131000000    -1.177000000
C    -3.704000000     2.845000000    -0.945000000
C    -3.463000000     2.179000000    -2.167000000
H    -3.896000000     1.203000000    -2.370000000
C    -2.461000000     2.633000000    -2.977000000
O    -2.178000000     1.756000000    -4.039000000
C    -0.994000000     0.890000000    -3.880000000
C    -1.234000000    -0.585000000    -4.410000000
C    -0.105000000    -1.391000000    -4.666000000
H     0.887000000    -0.947000000    -4.676000000
C    -2.485000000    -1.185000000    -4.476000000
H    -3.343000000    -0.531000000    -4.344000000
O     0.103000000     1.547000000    -4.629000000
H    -0.732000000     0.910000000    -2.812000000
C    -1.758000000     3.764000000    -2.714000000
C    -0.619000000     4.189000000    -3.645000000
H    -0.459000000     5.269000000    -3.661000000
H    -0.964000000     4.079000000    -4.676000000
C     0.725000000     3.542000000    -3.349000000
C     1.674000000     4.189000000    -2.564000000
H     1.536000000     5.251000000    -2.378000000
C     1.035000000     2.271000000    -3.937000000
C     2.280000000     1.684000000    -3.671000000
H     2.648000000     0.752000000    -4.092000000
C     3.130000000     2.291000000    -2.745000000
O     4.314000000     1.616000000    -2.371000000
C     4.324000000     0.880000000    -1.107000000
C     5.015000000    -0.448000000    -1.262000000
C     4.912000000    -1.148000000    -2.451000000
H     4.530000000    -0.624000000    -3.324000000
C     5.518000000    -1.025000000    -0.126000000
H     5.616000000    -0.490000000     0.815000000
O     4.949000000     1.662000000    -0.120000000
H     3.269000000     0.659000000    -0.884000000
C     2.843000000     3.535000000    -2.151000000
C     3.703000000     4.127000000    -0.937000000
H     3.351000000     5.156000000    -0.834000000
H     4.777000000     4.147000000    -1.133000000
C     3.522000000     3.456000000     0.434000000
C     4.087000000     2.292000000     0.740000000
C     3.819000000     1.640000000     1.956000000
H     4.278000000     0.700000000     2.252000000
C     2.823000000     2.194000000     2.878000000
O     2.326000000     1.448000000     3.953000000
C     0.986000000     0.893000000     3.917000000
H     0.529000000     0.923000000     2.917000000
C     0.970000000    -0.577000000     4.391000000
C    -0.231000000    -1.156000000     4.921000000
H    -1.056000000    -0.479000000     5.129000000
C     2.045000000    -1.420000000     4.132000000
H     2.899000000    -1.097000000     3.542000000
C     2.086000000    -2.762000000     4.552000000
O     3.211000000    -3.472000000     4.445000000
C     0.933000000    -3.276000000     5.097000000
H     0.976000000    -4.343000000     5.300000000
C    -0.186000000    -2.503000000     5.366000000
O    -1.327000000    -2.993000000     5.987000000
C    -2.608000000    -2.490000000     5.837000000
C    -3.559000000    -2.893000000     4.869000000
H    -3.345000000    -3.464000000     3.969000000
C    -2.975000000    -1.571000000     6.842000000
H    -2.240000000    -1.331000000     7.605000000
C    -4.184000000    -0.957000000     6.736000000
H    -4.357000000    -0.273000000     7.563000000
C    -5.086000000    -1.199000000     5.764000000
H    -6.012000000    -0.635000000     5.829000000
C    -4.745000000    -2.185000000     4.805000000
O    -5.494000000    -2.450000000     3.709000000
C    -5.437000000    -1.649000000     2.553000000
C    -6.122000000    -2.156000000     1.438000000
H    -6.723000000    -3.041000000     1.634000000
C    -6.072000000    -1.524000000     0.162000000
O    -6.858000000    -2.001000000    -0.854000000
C    -6.535000000    -2.230000000    -2.218000000
C    -5.222000000    -2.572000000    -2.620000000
H    -4.353000000    -2.727000000    -1.985000000
C    -7.535000000    -2.025000000    -3.197000000
H    -8.541000000    -1.721000000    -2.920000000
C    -7.300000000    -2.295000000    -4.492000000
H    -8.128000000    -2.358000000    -5.194000000
C    -6.024000000    -2.665000000    -4.914000000
H    -5.747000000    -2.849000000    -5.949000000
C    -4.959000000    -2.736000000    -3.980000000
O    -3.781000000    -3.274000000    -4.474000000
C    -2.590000000    -2.603000000    -4.555000000
C    -1.409000000    -3.310000000    -4.824000000
H    -1.431000000    -4.392000000    -4.927000000
C    -0.189000000    -2.740000000    -4.949000000
O     0.888000000    -3.585000000    -5.154000000
C     2.160000000    -3.167000000    -5.327000000
C     3.075000000    -3.283000000    -4.281000000
H     2.755000000    -3.480000000    -3.261000000
C     2.494000000    -2.904000000    -6.585000000
H     1.785000000    -2.871000000    -7.408000000
C     3.792000000    -2.620000000    -6.842000000
H     4.114000000    -2.558000000    -7.878000000
C     4.756000000    -2.688000000    -5.868000000
H     5.794000000    -2.493000000    -6.128000000
C     4.393000000    -3.062000000    -4.591000000
O     5.377000000    -3.131000000    -3.635000000
C     5.360000000    -2.446000000    -2.504000000
C     5.922000000    -3.043000000    -1.374000000
H     6.214000000    -4.090000000    -1.334000000
C     5.896000000    -2.398000000    -0.150000000
O     6.378000000    -2.923000000     1.029000000
C     6.035000000    -2.654000000     2.261000000
C     6.869000000    -1.938000000     3.122000000
H     7.754000000    -1.457000000     2.713000000
C     6.523000000    -1.774000000     4.456000000
H     7.179000000    -1.220000000     5.123000000
C     5.325000000    -2.224000000     4.960000000
H     5.173000000    -2.029000000     6.019000000
C     4.479000000    -2.970000000     4.153000000
C     4.916000000    -3.265000000     2.835000000
H     4.330000000    -3.973000000     2.256000000
C     0.328000000    -1.877000000    -0.694000000
H     0.711000000    -2.220000000    -1.651000000
C     0.199000000    -0.548000000    -0.543000000
H     0.423000000     0.169000000    -1.329000000
C    -0.391000000     0.051000000     0.585000000
H    -0.592000000     1.143000000     0.623000000
C    -0.715000000    -0.834000000     1.649000000
H    -1.326000000    -0.449000000     2.462000000
C    -0.532000000    -2.206000000     1.511000000
H    -0.880000000    -2.882000000     2.288000000
C     0.027000000    -2.741000000     0.311000000
C    -0.050000000    -4.230000000     0.050000000
O    -0.160000000    -5.092000000     0.891000000
O     0.270000000    -4.549000000    -1.053000000
O    -0.746000000    -7.582000000    -2.368000000
H     0.133000000    -7.204000000    -2.390000000
H    -1.233000000    -7.095000000    -3.032000000
O    -1.344000000    -7.402000000     0.367000000
H    -1.613000000    -7.535000000    -0.542000000
H    -0.955000000    -6.527000000     0.376000000
O     1.290000000    -5.724000000    -3.087000000
H     1.021000000    -5.226000000    -2.315000000
H     1.017000000    -5.182000000    -3.828000000
O     2.404000000    -5.963000000     1.285000000
H     2.565000000    -5.555000000     0.434000000
H     1.451000000    -5.953000000     1.378000000
O     1.288000000    -6.870000000     5.933000000
H     0.411000000    -6.704000000     6.278000000
H     1.267000000    -6.517000000     5.044000000
O     4.846000000    -6.374000000     2.772000000
H     4.018000000    -5.913000000     2.636000000
H     4.981000000    -6.867000000     1.963000000
O    -4.538000000    -6.513000000    -0.482000000
H    -4.778000000    -6.865000000    -1.339000000
H    -3.867000000    -5.857000000    -0.672000000
O    -2.650000000    -6.510000000    -4.192000000
H    -2.647000000    -6.406000000    -5.143000000
H    -3.556000000    -6.735000000    -3.978000000
O     2.921000000    -7.926000000    -1.149000000
H     3.446000000    -7.789000000    -0.361000000
H     2.108000000    -7.449000000    -0.982000000
O     1.502000000   -10.462000000    -0.045000000
H     1.542000000   -10.569000000    -0.995000000
H     1.601000000    -9.521000000     0.095000000
O    -0.856000000   -10.160000000    -3.353000000
H    -0.731000000    -9.327000000    -2.898000000
H     0.009000000   -10.569000000    -3.345000000
O     4.381000000    -7.518000000    -3.267000000
H     3.782000000    -7.464000000    -4.012000000
H     3.812000000    -7.681000000    -2.514000000
O    -2.941000000    -9.971000000     0.369000000
H    -2.484000000    -9.158000000     0.155000000
H    -2.399000000   -10.659000000    -0.017000000
O    -2.506000000    -6.972000000     3.128000000
H    -2.298000000    -7.879000000     3.355000000
H    -2.135000000    -6.854000000     2.253000000
O    -5.196000000    -7.106000000     2.148000000
H    -4.261000000    -7.036000000     2.344000000
H    -5.249000000    -7.007000000     1.198000000
O     2.090000000    -8.318000000     2.924000000
H     2.439000000    -7.781000000     2.213000000
H     1.534000000    -7.721000000     3.425000000
O     3.510000000    -5.145000000    -1.444000000
H     4.007000000    -5.887000000    -1.788000000
H     2.742000000    -5.087000000    -2.012000000
O    -2.563000000    -4.799000000    -1.736000000
H    -2.495000000    -4.411000000    -2.608000000
H    -1.676000000    -5.103000000    -1.539000000
O     0.007000000    -5.829000000     3.444000000
H     0.082000000    -5.620000000     2.513000000
H    -0.906000000    -6.091000000     3.559000000
