215
-1444.39856
C    -5.525000000    -0.254000000     0.331000000
H    -5.517000000     0.192000000    -0.660000000
C    -4.906000000     0.416000000     1.395000000
C    -4.725000000    -0.258000000     2.616000000
H    -4.168000000     0.153000000     3.454000000
C    -4.170000000     1.670000000     1.098000000
O    -4.636000000     2.310000000    -0.093000000
H    -3.136000000     1.379000000     0.859000000
O    -4.022000000     2.542000000     2.227000000
C    -2.758000000     3.242000000     2.503000000
C    -1.857000000     2.627000000     3.385000000
H    -2.282000000     1.928000000     4.100000000
C    -0.543000000     3.016000000     3.529000000
O     0.312000000     2.323000000     4.375000000
C    -0.101000000     4.082000000     2.693000000
C     1.333000000     4.519000000     2.762000000
H     1.327000000     5.537000000     2.368000000
C     2.263000000     3.667000000     1.957000000
C     2.758000000     4.216000000     0.790000000
H     2.389000000     5.218000000     0.584000000
H     1.644000000     4.505000000     3.809000000
C    -0.926000000     4.679000000     1.709000000
H    -0.635000000     5.507000000     1.068000000
C    -2.269000000     4.267000000     1.594000000
C    -3.107000000     4.810000000     0.467000000
H    -2.885000000     5.853000000     0.233000000
H    -4.173000000     4.827000000     0.706000000
C    -2.891000000     3.956000000    -0.768000000
C    -1.989000000     4.291000000    -1.772000000
H    -1.492000000     5.257000000    -1.729000000
C    -3.663000000     2.817000000    -0.980000000
C    -3.346000000     2.011000000    -2.064000000
H    -3.923000000     1.090000000    -2.096000000
C    -2.295000000     2.262000000    -2.906000000
O    -2.000000000     1.323000000    -3.923000000
C    -0.860000000     0.560000000    -3.820000000
C    -1.124000000    -0.908000000    -4.084000000
C    -0.130000000    -1.832000000    -4.483000000
H     0.901000000    -1.507000000    -4.596000000
C    -2.424000000    -1.370000000    -3.947000000
H    -3.235000000    -0.661000000    -3.803000000
O     0.132000000     1.077000000    -4.642000000
H    -0.449000000     0.518000000    -2.801000000
C    -1.602000000     3.466000000    -2.838000000
C    -0.531000000     3.858000000    -3.816000000
H    -0.347000000     4.921000000    -3.644000000
H    -0.959000000     3.726000000    -4.812000000
C     0.829000000     3.181000000    -3.592000000
C     1.721000000     3.754000000    -2.694000000
H     1.479000000     4.592000000    -2.045000000
C     1.108000000     1.900000000    -4.094000000
C     2.332000000     1.310000000    -3.891000000
H     2.661000000     0.395000000    -4.376000000
C     3.306000000     1.924000000    -3.013000000
O     4.383000000     1.157000000    -2.592000000
C     4.350000000     0.507000000    -1.264000000
C     4.899000000    -0.912000000    -1.311000000
C     4.869000000    -1.673000000    -2.503000000
H     4.384000000    -1.233000000    -3.370000000
C     5.309000000    -1.566000000    -0.128000000
H     5.241000000    -1.015000000     0.807000000
O     4.927000000     1.336000000    -0.262000000
H     3.293000000     0.406000000    -0.979000000
C     2.978000000     3.150000000    -2.461000000
C     3.942000000     3.800000000    -1.479000000
H     3.904000000     4.886000000    -1.587000000
H     5.001000000     3.601000000    -1.657000000
C     3.578000000     3.407000000    -0.030000000
C     4.051000000     2.162000000     0.502000000
C     3.640000000     1.657000000     1.709000000
H     4.136000000     0.775000000     2.106000000
C     2.793000000     2.450000000     2.505000000
O     2.505000000     2.007000000     3.738000000
C     1.170000000     1.407000000     3.755000000
H     0.897000000     1.232000000     2.703000000
C     1.056000000     0.080000000     4.450000000
C    -0.049000000    -0.309000000     5.195000000
H    -0.875000000     0.379000000     5.355000000
C     2.153000000    -0.829000000     4.235000000
H     2.953000000    -0.607000000     3.533000000
C     2.029000000    -2.140000000     4.809000000
O     3.037000000    -3.055000000     4.507000000
C     1.025000000    -2.422000000     5.689000000
H     0.964000000    -3.462000000     6.001000000
C    -0.013000000    -1.494000000     5.831000000
O    -1.036000000    -1.833000000     6.680000000
C    -2.415000000    -1.615000000     6.511000000
C    -3.034000000    -2.018000000     5.355000000
H    -2.443000000    -2.690000000     4.738000000
C    -3.118000000    -0.905000000     7.408000000
H    -2.645000000    -0.549000000     8.320000000
C    -4.476000000    -0.568000000     7.187000000
H    -4.943000000     0.112000000     7.895000000
C    -5.036000000    -0.975000000     5.999000000
H    -6.070000000    -0.765000000     5.737000000
C    -4.380000000    -1.829000000     5.110000000
O    -5.005000000    -2.280000000     3.911000000
C    -5.322000000    -1.516000000     2.833000000
C    -6.010000000    -2.120000000     1.728000000
H    -6.408000000    -3.116000000     1.907000000
C    -6.157000000    -1.441000000     0.512000000
O    -7.040000000    -1.948000000    -0.477000000
C    -6.701000000    -2.019000000    -1.880000000
C    -5.517000000    -2.709000000    -2.228000000
H    -4.954000000    -3.181000000    -1.427000000
C    -7.347000000    -1.369000000    -2.936000000
H    -8.248000000    -0.807000000    -2.705000000
C    -6.909000000    -1.430000000    -4.266000000
H    -7.403000000    -0.789000000    -4.992000000
C    -5.806000000    -2.143000000    -4.613000000
H    -5.444000000    -2.152000000    -5.638000000
C    -5.106000000    -2.747000000    -3.584000000
O    -3.948000000    -3.419000000    -3.885000000
C    -2.728000000    -2.729000000    -4.155000000
C    -1.696000000    -3.564000000    -4.598000000
H    -2.004000000    -4.598000000    -4.732000000
C    -0.392000000    -3.188000000    -4.821000000
O     0.557000000    -4.011000000    -5.380000000
C     1.947000000    -3.793000000    -5.511000000
C     2.785000000    -3.922000000    -4.420000000
H     2.347000000    -4.308000000    -3.503000000
C     2.481000000    -3.383000000    -6.798000000
H     1.944000000    -3.229000000    -7.730000000
C     3.889000000    -3.243000000    -6.962000000
H     4.346000000    -3.127000000    -7.942000000
C     4.695000000    -3.373000000    -5.782000000
H     5.766000000    -3.213000000    -5.870000000
C     4.147000000    -3.691000000    -4.529000000
O     5.016000000    -3.928000000    -3.448000000
C     5.131000000    -3.044000000    -2.437000000
C     5.755000000    -3.547000000    -1.318000000
H     6.233000000    -4.523000000    -1.311000000
C     5.786000000    -2.892000000    -0.127000000
O     6.317000000    -3.467000000     1.052000000
C     5.898000000    -3.075000000     2.278000000
C     6.790000000    -2.362000000     3.100000000
H     7.795000000    -2.245000000     2.704000000
C     6.504000000    -1.980000000     4.337000000
H     7.317000000    -1.497000000     4.873000000
C     5.207000000    -2.167000000     4.826000000
H     5.046000000    -1.903000000     5.869000000
C     4.292000000    -2.797000000     3.975000000
C     4.587000000    -3.275000000     2.711000000
H     3.794000000    -3.652000000     2.069000000
C     0.540000000    -2.330000000    -0.325000000
H     0.686000000    -3.218000000    -0.935000000
C     0.799000000    -1.097000000    -0.785000000
H     1.156000000    -0.948000000    -1.801000000
C     0.399000000     0.065000000    -0.063000000
H     0.439000000     1.077000000    -0.378000000
C    -0.248000000    -0.104000000     1.144000000
H    -0.793000000     0.734000000     1.571000000
C    -0.378000000    -1.368000000     1.678000000
H    -0.747000000    -1.507000000     2.691000000
C     0.051000000    -2.515000000     0.980000000
C    -0.111000000    -3.897000000     1.544000000
O    -0.574000000    -4.179000000     2.669000000
O     0.131000000    -4.875000000     0.846000000
O    -4.071000000    -7.463000000     2.185000000
H    -3.465000000    -6.741000000     2.346000000
H    -4.940000000    -7.077000000     2.299000000
O    -0.873000000    -6.501000000    -1.195000000
H    -0.264000000    -6.027000000    -0.629000000
H    -1.081000000    -7.298000000    -0.707000000
O     2.188000000    -9.673000000     2.838000000
H     2.994000000    -9.907000000     3.298000000
H     2.388000000    -8.839000000     2.413000000
O     1.397000000    -5.350000000     4.025000000
H     1.870000000    -4.570000000     4.315000000
H     0.816000000    -5.034000000     3.333000000
O     4.938000000    -6.063000000     1.221000000
H     5.376000000    -5.303000000     0.839000000
H     4.007000000    -5.911000000     1.056000000
O     2.976000000    -7.165000000     5.494000000
H     2.682000000    -7.003000000     6.390000000
H     2.299000000    -6.769000000     4.945000000
O     1.687000000    -8.356000000    -0.976000000
H     2.232000000    -8.627000000    -1.714000000
H     1.196000000    -9.143000000    -0.739000000
O    -5.430000000    -5.158000000     0.924000000
H    -5.183000000    -5.522000000     0.074000000
H    -4.601000000    -5.061000000     1.393000000
O    -2.368000000    -4.981000000     7.490000000
H    -2.967000000    -5.727000000     7.463000000
H    -2.053000000    -4.894000000     6.590000000
O    -0.832000000    -8.065000000     5.876000000
H    -1.026000000    -8.960000000     6.154000000
H    -0.497000000    -8.159000000     4.984000000
O     3.946000000    -8.804000000     0.498000000
H     3.128000000    -8.650000000     0.025000000
H     4.451000000    -8.001000000     0.370000000
O     0.375000000   -10.141000000     0.821000000
H     1.031000000   -10.021000000     1.508000000
H    -0.142000000    -9.336000000     0.839000000
O    -2.131000000    -8.903000000     0.494000000
H    -2.651000000    -8.270000000     0.989000000
H    -2.535000000    -8.917000000    -0.374000000
O    -0.337000000    -6.770000000    -3.848000000
H    -1.229000000    -7.075000000    -4.014000000
H    -0.345000000    -6.492000000    -2.932000000
O    -3.168000000    -4.688000000     2.240000000
H    -3.591000000    -4.378000000     3.041000000
H    -2.283000000    -4.325000000     2.280000000
O     0.034000000    -7.335000000     2.297000000
H    -0.383000000    -6.616000000     1.822000000
H     0.622000000    -6.904000000     2.916000000
O     2.356000000    -5.985000000     0.414000000
H     2.163000000    -6.666000000    -0.231000000
H     1.510000000    -5.569000000     0.583000000
O    -4.257000000    -5.690000000    -1.664000000
H    -4.324000000    -5.975000000    -2.575000000
H    -3.398000000    -5.271000000    -1.606000000
O    -1.678000000    -5.584000000     4.793000000
H    -1.043000000    -5.221000000     4.176000000
H    -1.223000000    -6.323000000     5.197000000
