215
-1464.38821
C    -5.439000000    -0.678000000     0.476000000
H    -5.612000000    -0.416000000    -0.565000000
C    -4.619000000     0.108000000     1.275000000
C    -4.290000000    -0.343000000     2.551000000
H    -3.572000000     0.240000000     3.122000000
C    -4.015000000     1.391000000     0.754000000
O    -4.767000000     1.991000000    -0.373000000
H    -2.985000000     1.231000000     0.402000000
O    -3.963000000     2.364000000     1.791000000
C    -2.800000000     3.021000000     1.860000000
C    -1.935000000     2.739000000     2.933000000
H    -2.264000000     1.986000000     3.644000000
C    -0.704000000     3.313000000     2.987000000
O     0.238000000     2.816000000     3.956000000
C    -0.334000000     4.311000000     2.130000000
C     1.033000000     4.928000000     2.285000000
H     1.203000000     5.939000000     1.909000000
C     2.209000000     4.153000000     1.625000000
C     2.389000000     4.348000000     0.245000000
H     1.787000000     5.051000000    -0.326000000
H     1.155000000     5.068000000     3.361000000
C    -1.234000000     4.760000000     1.168000000
H    -1.023000000     5.639000000     0.564000000
C    -2.478000000     4.097000000     1.009000000
C    -3.434000000     4.493000000    -0.126000000
H    -3.201000000     5.536000000    -0.353000000
H    -4.509000000     4.537000000     0.060000000
C    -3.265000000     3.599000000    -1.337000000
C    -2.370000000     3.947000000    -2.342000000
H    -1.857000000     4.900000000    -2.248000000
C    -3.985000000     2.424000000    -1.401000000
C    -3.680000000     1.442000000    -2.367000000
H    -4.249000000     0.516000000    -2.392000000
C    -2.633000000     1.695000000    -3.231000000
O    -2.286000000     0.714000000    -4.123000000
C    -1.032000000     0.018000000    -4.136000000
C    -1.215000000    -1.459000000    -4.384000000
C    -0.168000000    -2.128000000    -5.039000000
H     0.693000000    -1.509000000    -5.279000000
C    -2.324000000    -2.141000000    -3.836000000
H    -3.086000000    -1.602000000    -3.279000000
O    -0.075000000     0.705000000    -5.030000000
H    -0.700000000     0.122000000    -3.093000000
C    -2.008000000     2.961000000    -3.270000000
C    -0.972000000     3.327000000    -4.338000000
H    -0.851000000     4.412000000    -4.349000000
H    -1.330000000     2.979000000    -5.309000000
C     0.453000000     2.810000000    -4.034000000
C     1.329000000     3.523000000    -3.244000000
H     1.007000000     4.509000000    -2.918000000
C     0.837000000     1.508000000    -4.401000000
C     2.107000000     1.012000000    -4.113000000
H     2.510000000     0.085000000    -4.511000000
C     2.947000000     1.757000000    -3.249000000
O     4.028000000     1.145000000    -2.702000000
C     4.031000000     0.601000000    -1.343000000
C     4.389000000    -0.862000000    -1.229000000
C     4.527000000    -1.748000000    -2.315000000
H     4.234000000    -1.230000000    -3.225000000
C     4.464000000    -1.363000000     0.105000000
H     4.285000000    -0.687000000     0.937000000
O     4.692000000     1.500000000    -0.437000000
H     2.969000000     0.550000000    -1.062000000
C     2.581000000     3.051000000    -2.877000000
C     3.486000000     3.900000000    -1.964000000
H     3.219000000     4.959000000    -2.000000000
H     4.542000000     3.851000000    -2.235000000
C     3.298000000     3.579000000    -0.504000000
C     4.028000000     2.543000000     0.208000000
C     3.743000000     2.297000000     1.579000000
H     4.284000000     1.538000000     2.140000000
C     2.872000000     3.110000000     2.240000000
O     2.539000000     2.676000000     3.503000000
C     1.304000000     1.988000000     3.531000000
H     1.127000000     1.492000000     2.565000000
C     1.418000000     0.875000000     4.565000000
C     0.268000000     0.366000000     5.205000000
H    -0.693000000     0.740000000     4.860000000
C     2.670000000     0.309000000     4.936000000
H     3.617000000     0.735000000     4.615000000
C     2.733000000    -0.807000000     5.743000000
O     3.875000000    -1.504000000     5.953000000
C     1.600000000    -1.241000000     6.332000000
H     1.654000000    -2.078000000     7.023000000
C     0.347000000    -0.626000000     6.137000000
O    -0.736000000    -1.104000000     6.802000000
C    -2.020000000    -0.721000000     6.496000000
C    -2.710000000    -1.363000000     5.473000000
H    -2.310000000    -2.193000000     4.894000000
C    -2.684000000     0.135000000     7.337000000
H    -2.163000000     0.553000000     8.195000000
C    -4.063000000     0.391000000     7.200000000
H    -4.619000000     1.102000000     7.806000000
C    -4.742000000    -0.288000000     6.207000000
H    -5.808000000    -0.076000000     6.175000000
C    -4.032000000    -1.105000000     5.281000000
O    -4.724000000    -1.918000000     4.351000000
C    -4.896000000    -1.472000000     3.104000000
C    -5.714000000    -2.211000000     2.334000000
H    -6.271000000    -2.996000000     2.837000000
C    -5.956000000    -1.892000000     0.992000000
O    -6.589000000    -2.777000000     0.118000000
C    -6.099000000    -3.089000000    -1.224000000
C    -4.816000000    -3.558000000    -1.511000000
H    -4.075000000    -3.747000000    -0.739000000
C    -6.993000000    -2.879000000    -2.214000000
H    -7.994000000    -2.502000000    -2.019000000
C    -6.658000000    -3.206000000    -3.565000000
H    -7.423000000    -2.935000000    -4.287000000
C    -5.389000000    -3.695000000    -3.890000000
H    -5.057000000    -3.775000000    -4.922000000
C    -4.529000000    -3.930000000    -2.835000000
O    -3.244000000    -4.292000000    -3.086000000
C    -2.313000000    -3.535000000    -3.832000000
C    -1.264000000    -4.202000000    -4.527000000
H    -1.183000000    -5.286000000    -4.517000000
C    -0.188000000    -3.511000000    -5.145000000
O     0.870000000    -4.213000000    -5.625000000
C     2.202000000    -3.883000000    -5.519000000
C     2.957000000    -4.140000000    -4.371000000
H     2.423000000    -4.632000000    -3.562000000
C     2.793000000    -3.175000000    -6.554000000
H     2.181000000    -2.984000000    -7.431000000
C     4.156000000    -2.802000000    -6.593000000
H     4.619000000    -2.366000000    -7.475000000
C     4.887000000    -3.074000000    -5.422000000
H     5.946000000    -2.842000000    -5.345000000
C     4.285000000    -3.766000000    -4.370000000
O     4.922000000    -4.013000000    -3.161000000
C     4.887000000    -3.068000000    -2.131000000
C     4.947000000    -3.529000000    -0.816000000
H     5.213000000    -4.577000000    -0.702000000
C     4.644000000    -2.721000000     0.289000000
O     4.553000000    -3.351000000     1.503000000
C     5.116000000    -2.836000000     2.694000000
C     6.431000000    -2.436000000     2.732000000
H     7.060000000    -2.667000000     1.876000000
C     6.942000000    -1.850000000     3.958000000
H     7.907000000    -1.360000000     4.059000000
C     6.095000000    -1.665000000     5.063000000
H     6.395000000    -1.078000000     5.927000000
C     4.696000000    -1.936000000     4.929000000
C     4.218000000    -2.490000000     3.715000000
H     3.196000000    -2.848000000     3.614000000
C     0.575000000    -2.042000000    -0.429000000
H     0.801000000    -3.055000000    -0.749000000
C     0.868000000    -0.911000000    -1.192000000
H     1.445000000    -0.924000000    -2.113000000
C     0.251000000     0.294000000    -0.902000000
H     0.438000000     1.109000000    -1.646000000
C    -0.439000000     0.394000000     0.361000000
H    -0.727000000     1.414000000     0.605000000
C    -0.696000000    -0.711000000     1.174000000
H    -1.049000000    -0.678000000     2.202000000
C    -0.139000000    -1.951000000     0.759000000
C    -0.326000000    -3.240000000     1.511000000
O    -1.141000000    -3.314000000     2.433000000
O     0.291000000    -4.272000000     1.286000000
O    -3.391000000    -4.364000000     1.502000000
H    -4.084000000    -3.782000000     1.813000000
H    -2.580000000    -3.891000000     1.688000000
O     5.485000000    -6.836000000     2.285000000
H     4.996000000    -6.881000000     1.463000000
H     4.848000000    -6.516000000     2.925000000
O     2.488000000    -5.025000000     2.327000000
H     3.004000000    -4.511000000     1.706000000
H     1.579000000    -4.851000000     2.085000000
O    -0.634000000    -7.732000000     5.298000000
H    -1.003000000    -6.864000000     5.139000000
H    -0.977000000    -8.272000000     4.586000000
O     1.915000000    -6.784000000    -2.581000000
H     2.763000000    -7.116000000    -2.287000000
H     1.452000000    -6.561000000    -1.774000000
O     0.361000000    -4.615000000     4.588000000
H     0.154000000    -5.264000000     3.915000000
H    -0.036000000    -3.805000000     4.269000000
O    -1.526000000    -5.589000000     7.339000000
H    -0.681000000    -5.775000000     6.929000000
H    -1.316000000    -5.005000000     8.067000000
O    -5.075000000    -4.189000000     7.107000000
H    -4.636000000    -3.974000000     6.285000000
H    -4.917000000    -5.126000000     7.225000000
O     1.556000000    -6.382000000     6.252000000
H     0.987000000    -7.091000000     5.951000000
H     1.453000000    -5.696000000     5.593000000
O     2.196000000    -8.168000000     3.398000000
H     2.825000000    -8.279000000     4.111000000
H     2.353000000    -7.280000000     3.076000000
O     0.186000000    -9.612000000     0.518000000
H     1.125000000    -9.734000000     0.375000000
H     0.125000000    -9.223000000     1.390000000
O    -4.508000000    -7.130000000     2.761000000
H    -3.625000000    -6.789000000     2.620000000
H    -4.896000000    -7.158000000     1.887000000
O    -2.426000000    -6.290000000     0.089000000
H    -2.988000000    -5.605000000     0.452000000
H    -2.867000000    -6.559000000    -0.717000000
O    -1.280000000    -6.042000000     2.617000000
H    -1.597000000    -6.514000000     1.847000000
H    -0.938000000    -5.218000000     2.270000000
O     4.117000000    -5.918000000     4.257000000
H     3.338000000    -5.493000000     3.897000000
H     4.417000000    -5.324000000     4.945000000
O     0.127000000    -9.886000000     3.544000000
H     0.470000000   -10.367000000     4.297000000
H     0.747000000    -9.169000000     3.415000000
O    -6.152000000    -5.845000000     4.245000000
H    -5.767000000    -6.433000000     3.596000000
H    -5.449000000    -5.230000000     4.457000000
O     0.381000000    -6.297000000    -0.396000000
H    -0.558000000    -6.480000000    -0.363000000
H     0.532000000    -5.687000000     0.326000000
O    -3.288000000    -4.688000000     4.893000000
H    -2.893000000    -4.766000000     5.762000000
H    -2.554000000    -4.787000000     4.287000000
