215
-1457.49651
C    -5.432000000     0.013000000     0.764000000
H    -5.433000000     0.156000000    -0.313000000
C    -4.674000000     0.880000000     1.597000000
C    -4.605000000     0.684000000     2.988000000
H    -4.154000000     1.426000000     3.642000000
C    -3.669000000     1.826000000     0.907000000
O    -4.196000000     2.324000000    -0.368000000
H    -2.744000000     1.245000000     0.780000000
O    -3.475000000     3.064000000     1.678000000
C    -2.176000000     3.622000000     1.744000000
C    -1.299000000     3.283000000     2.743000000
H    -1.661000000     2.620000000     3.524000000
C    -0.026000000     3.810000000     2.747000000
O     0.832000000     3.289000000     3.701000000
C     0.458000000     4.534000000     1.635000000
C     1.912000000     5.033000000     1.651000000
H     1.974000000     6.037000000     1.227000000
C     2.722000000     3.965000000     0.948000000
C     2.974000000     4.068000000    -0.392000000
H     2.636000000     4.912000000    -0.989000000
H     2.250000000     5.092000000     2.688000000
C    -0.399000000     4.967000000     0.693000000
H    -0.025000000     5.346000000    -0.255000000
C    -1.715000000     4.481000000     0.677000000
C    -2.606000000     4.792000000    -0.532000000
H    -2.332000000     5.723000000    -1.033000000
H    -3.636000000     4.871000000    -0.179000000
C    -2.499000000     3.639000000    -1.513000000
C    -1.596000000     3.754000000    -2.617000000
H    -0.976000000     4.646000000    -2.583000000
C    -3.292000000     2.547000000    -1.411000000
C    -3.131000000     1.509000000    -2.337000000
H    -3.766000000     0.634000000    -2.219000000
C    -2.326000000     1.682000000    -3.451000000
O    -2.297000000     0.658000000    -4.382000000
C    -1.131000000    -0.287000000    -4.299000000
C    -1.459000000    -1.718000000    -4.359000000
C    -0.671000000    -2.698000000    -4.917000000
H     0.206000000    -2.338000000    -5.449000000
C    -2.572000000    -2.092000000    -3.612000000
H    -3.083000000    -1.242000000    -3.165000000
O    -0.145000000     0.138000000    -5.281000000
H    -0.837000000    -0.199000000    -3.243000000
C    -1.593000000     2.858000000    -3.676000000
C    -0.618000000     2.913000000    -4.823000000
H    -0.551000000     3.961000000    -5.123000000
H    -1.050000000     2.385000000    -5.675000000
C     0.765000000     2.300000000    -4.481000000
C     1.822000000     2.948000000    -3.808000000
H     1.733000000     3.991000000    -3.518000000
C     0.915000000     0.934000000    -4.885000000
C     2.029000000     0.290000000    -4.400000000
H     2.221000000    -0.734000000    -4.710000000
C     3.060000000     0.901000000    -3.589000000
O     3.925000000     0.138000000    -2.947000000
C     3.777000000     0.003000000    -1.483000000
C     3.953000000    -1.434000000    -1.087000000
C     3.747000000    -2.457000000    -2.025000000
H     3.694000000    -2.270000000    -3.095000000
C     4.125000000    -1.822000000     0.287000000
H     4.186000000    -1.035000000     1.035000000
O     4.737000000     0.883000000    -0.887000000
H     2.766000000     0.224000000    -1.110000000
C     2.944000000     2.313000000    -3.375000000
C     3.959000000     3.108000000    -2.559000000
H     4.017000000     4.156000000    -2.860000000
H     4.929000000     2.632000000    -2.717000000
C     3.687000000     3.061000000    -1.072000000
C     4.219000000     1.956000000    -0.299000000
C     4.092000000     1.964000000     1.079000000
H     4.578000000     1.170000000     1.641000000
C     3.284000000     2.923000000     1.715000000
O     3.062000000     2.703000000     3.070000000
C     1.712000000     2.229000000     3.378000000
H     1.277000000     1.821000000     2.453000000
C     1.695000000     1.146000000     4.529000000
C     0.473000000     0.745000000     5.093000000
H    -0.427000000     1.243000000     4.742000000
C     2.889000000     0.435000000     4.900000000
H     3.898000000     0.780000000     4.692000000
C     2.840000000    -0.646000000     5.746000000
O     3.904000000    -1.413000000     6.065000000
C     1.631000000    -1.057000000     6.191000000
H     1.517000000    -1.994000000     6.730000000
C     0.444000000    -0.423000000     5.874000000
O    -0.777000000    -0.969000000     6.268000000
C    -1.960000000    -0.292000000     6.334000000
C    -3.058000000    -0.738000000     5.638000000
H    -3.107000000    -1.725000000     5.186000000
C    -2.027000000     0.893000000     7.140000000
H    -1.105000000     1.212000000     7.620000000
C    -3.176000000     1.623000000     7.062000000
H    -3.233000000     2.563000000     7.605000000
C    -4.313000000     1.192000000     6.447000000
H    -5.203000000     1.808000000     6.352000000
C    -4.237000000    -0.060000000     5.745000000
O    -5.303000000    -0.528000000     4.995000000
C    -5.400000000    -0.316000000     3.625000000
C    -6.159000000    -1.127000000     2.787000000
H    -6.850000000    -1.819000000     3.260000000
C    -6.185000000    -1.008000000     1.394000000
O    -6.956000000    -1.878000000     0.630000000
C    -6.621000000    -2.193000000    -0.669000000
C    -5.415000000    -2.867000000    -0.877000000
H    -4.677000000    -3.000000000    -0.091000000
C    -7.541000000    -2.043000000    -1.707000000
H    -8.513000000    -1.757000000    -1.313000000
C    -7.116000000    -2.167000000    -3.029000000
H    -7.780000000    -2.013000000    -3.875000000
C    -5.818000000    -2.748000000    -3.253000000
H    -5.452000000    -2.897000000    -4.265000000
C    -5.086000000    -3.206000000    -2.169000000
O    -3.875000000    -3.930000000    -2.465000000
C    -2.910000000    -3.477000000    -3.395000000
C    -2.057000000    -4.397000000    -3.985000000
H    -2.244000000    -5.466000000    -3.924000000
C    -0.962000000    -4.033000000    -4.756000000
O    -0.109000000    -4.957000000    -5.340000000
C     1.249000000    -4.825000000    -5.209000000
C     1.791000000    -4.777000000    -3.897000000
H     1.190000000    -4.783000000    -2.992000000
C     2.140000000    -4.738000000    -6.360000000
H     1.787000000    -4.719000000    -7.388000000
C     3.531000000    -4.613000000    -6.170000000
H     4.181000000    -4.444000000    -7.024000000
C     4.024000000    -4.677000000    -4.873000000
H     5.103000000    -4.716000000    -4.754000000
C     3.185000000    -4.791000000    -3.761000000
O     3.749000000    -4.801000000    -2.510000000
C     3.751000000    -3.801000000    -1.627000000
C     3.960000000    -4.162000000    -0.300000000
H     3.837000000    -5.208000000    -0.032000000
C     4.145000000    -3.200000000     0.655000000
O     4.217000000    -3.655000000     1.915000000
C     4.913000000    -2.858000000     2.858000000
C     6.242000000    -2.435000000     2.766000000
H     6.815000000    -2.675000000     1.874000000
C     6.771000000    -1.608000000     3.763000000
H     7.798000000    -1.259000000     3.826000000
C     6.012000000    -1.283000000     4.883000000
H     6.386000000    -0.640000000     5.676000000
C     4.731000000    -1.783000000     5.052000000
C     4.243000000    -2.653000000     4.072000000
H     3.234000000    -3.049000000     4.162000000
C     0.548000000    -2.186000000     0.040000000
H     0.909000000    -2.938000000    -0.656000000
C     0.287000000    -0.926000000    -0.486000000
H     0.406000000    -0.673000000    -1.536000000
C    -0.184000000     0.096000000     0.360000000
H    -0.444000000     1.089000000    -0.054000000
C    -0.250000000    -0.113000000     1.708000000
H    -0.651000000     0.672000000     2.345000000
C     0.112000000    -1.340000000     2.196000000
H     0.096000000    -1.473000000     3.275000000
C     0.500000000    -2.438000000     1.381000000
C     0.888000000    -3.783000000     1.927000000
O     1.125000000    -3.889000000     3.102000000
O     0.820000000    -4.679000000     1.162000000
O    -5.403000000    -4.705000000     1.994000000
H    -5.114000000    -4.875000000     2.891000000
H    -6.338000000    -4.518000000     2.075000000
O     2.486000000    -6.756000000     1.566000000
H     2.811000000    -6.668000000     2.462000000
H     2.023000000    -5.935000000     1.398000000
O     0.506000000    -6.293000000     5.818000000
H    -0.173000000    -6.443000000     6.477000000
H     0.228000000    -6.814000000     5.065000000
O     4.796000000    -6.299000000     6.221000000
H     4.218000000    -6.435000000     5.470000000
H     4.289000000    -5.748000000     6.817000000
O    -0.108000000    -7.779000000    -1.064000000
H     0.264000000    -7.698000000    -1.942000000
H    -0.244000000    -6.876000000    -0.777000000
O     2.844000000    -5.895000000     4.147000000
H     2.301000000    -5.987000000     4.929000000
H     2.683000000    -5.000000000     3.847000000
O     6.873000000    -5.214000000     4.110000000
H     5.963000000    -4.953000000     3.968000000
H     7.020000000    -5.921000000     3.482000000
O    -2.053000000    -4.202000000     6.952000000
H    -1.266000000    -3.700000000     7.164000000
H    -1.998000000    -4.346000000     6.008000000
O     2.638000000    -4.737000000     6.922000000
H     2.418000000    -4.330000000     7.760000000
H     1.835000000    -5.185000000     6.655000000
O     3.223000000    -8.255000000    -0.471000000
H     2.760000000    -8.006000000    -1.271000000
H     2.756000000    -7.798000000     0.229000000
O    -3.389000000    -7.032000000     3.681000000
H    -3.714000000    -6.177000000     3.962000000
H    -2.959000000    -6.862000000     2.843000000
O    -3.453000000    -5.907000000     0.736000000
H    -4.221000000    -5.575000000     1.201000000
H    -3.809000000    -6.323000000    -0.049000000
O    -1.216000000    -6.062000000     2.203000000
H    -1.825000000    -6.064000000     1.464000000
H    -0.497000000    -5.498000000     1.919000000
O    -0.402000000   -10.058000000     0.654000000
H    -1.325000000   -10.272000000     0.517000000
H    -0.296000000    -9.192000000     0.259000000
O     4.021000000    -8.814000000     2.818000000
H     3.433000000    -8.265000000     2.300000000
H     3.450000000    -9.240000000     3.457000000
O    -0.200000000    -8.550000000     4.051000000
H    -0.987000000    -8.943000000     4.428000000
H    -0.511000000    -8.091000000     3.271000000
O    -4.311000000    -4.519000000     4.350000000
H    -4.648000000    -4.091000000     5.137000000
H    -3.436000000    -4.149000000     4.232000000
O    -0.852000000    -5.175000000    -0.874000000
H    -1.755000000    -4.946000000    -0.655000000
H    -0.350000000    -4.943000000    -0.092000000
O    -1.421000000    -3.957000000     4.446000000
H    -1.179000000    -4.678000000     3.866000000
H    -0.679000000    -3.354000000     4.400000000
