215
-1445.39500
C     4.340000000     2.141000000    -2.743000000
H     4.994000000     1.371000000    -3.144000000
C     3.995000000     2.172000000    -1.359000000
C     3.295000000     3.217000000    -0.859000000
H     2.986000000     3.232000000     0.183000000
C     4.230000000     0.975000000    -0.400000000
O     5.049000000    -0.040000000    -0.983000000
H     3.224000000     0.551000000    -0.263000000
O     4.708000000     1.467000000     0.842000000
C     4.146000000     0.834000000     1.969000000
C     3.250000000     1.567000000     2.685000000
H     3.030000000     2.587000000     2.382000000
C     2.549000000     1.058000000     3.797000000
O     1.642000000     1.843000000     4.414000000
C     2.647000000    -0.353000000     4.101000000
C     1.772000000    -0.904000000     5.195000000
H     2.266000000    -1.724000000     5.721000000
C     0.448000000    -1.315000000     4.638000000
C     0.331000000    -2.598000000     4.101000000
H     1.174000000    -3.282000000     4.159000000
H     1.642000000    -0.207000000     6.025000000
C     3.563000000    -1.092000000     3.314000000
H     3.661000000    -2.149000000     3.547000000
C     4.323000000    -0.503000000     2.300000000
C     5.267000000    -1.384000000     1.455000000
H     5.772000000    -2.163000000     2.030000000
H     6.098000000    -0.818000000     1.030000000
C     4.534000000    -2.025000000     0.273000000
C     3.781000000    -3.172000000     0.343000000
H     3.945000000    -3.781000000     1.229000000
C     4.507000000    -1.274000000    -0.877000000
C     3.742000000    -1.696000000    -1.922000000
H     3.775000000    -1.147000000    -2.860000000
C     3.037000000    -2.899000000    -1.840000000
O     2.185000000    -3.148000000    -2.910000000
C     0.691000000    -2.998000000    -2.736000000
C    -0.027000000    -2.458000000    -3.910000000
C    -1.306000000    -2.898000000    -4.286000000
H    -1.865000000    -3.684000000    -3.784000000
C     0.621000000    -1.422000000    -4.607000000
H     1.631000000    -1.176000000    -4.289000000
O     0.039000000    -4.221000000    -2.366000000
H     0.439000000    -2.346000000    -1.886000000
C     3.078000000    -3.714000000    -0.705000000
C     2.332000000    -5.039000000    -0.555000000
H     2.928000000    -5.784000000    -0.023000000
H     2.293000000    -5.572000000    -1.507000000
C     0.787000000    -4.774000000    -0.126000000
C     0.452000000    -4.902000000     1.241000000
H     1.200000000    -5.190000000     1.975000000
C    -0.221000000    -4.350000000    -1.059000000
C    -1.466000000    -4.031000000    -0.626000000
H    -2.202000000    -3.692000000    -1.351000000
C    -1.804000000    -4.098000000     0.749000000
O    -3.053000000    -3.641000000     1.036000000
C    -3.083000000    -2.291000000     1.499000000
C    -4.197000000    -1.554000000     0.769000000
C    -4.950000000    -2.094000000    -0.243000000
H    -4.779000000    -3.104000000    -0.608000000
C    -4.346000000    -0.212000000     1.098000000
H    -3.755000000     0.178000000     1.923000000
O    -3.137000000    -2.269000000     2.936000000
H    -2.130000000    -1.820000000     1.217000000
C    -0.812000000    -4.535000000     1.662000000
C    -1.064000000    -4.411000000     3.132000000
H    -0.388000000    -5.078000000     3.670000000
H    -2.070000000    -4.761000000     3.372000000
C    -0.868000000    -2.986000000     3.645000000
C    -1.966000000    -2.058000000     3.524000000
C    -1.776000000    -0.790000000     4.096000000
H    -2.649000000    -0.142000000     4.081000000
C    -0.637000000    -0.429000000     4.748000000
O    -0.346000000     0.867000000     5.088000000
C     0.287000000     1.704000000     4.053000000
H     0.353000000     1.177000000     3.090000000
C    -0.334000000     3.065000000     3.946000000
C     0.397000000     4.191000000     3.599000000
H     1.419000000     4.069000000     3.250000000
C    -1.686000000     3.232000000     4.270000000
H    -2.277000000     2.386000000     4.613000000
C    -2.292000000     4.437000000     4.117000000
O    -3.678000000     4.581000000     4.276000000
C    -1.586000000     5.620000000     3.851000000
H    -1.981000000     6.626000000     3.963000000
C    -0.221000000     5.413000000     3.526000000
O     0.524000000     6.528000000     3.066000000
C     1.512000000     6.518000000     2.127000000
C     1.402000000     5.760000000     0.965000000
H     0.482000000     5.252000000     0.688000000
C     2.717000000     7.200000000     2.418000000
H     2.781000000     7.709000000     3.377000000
C     3.746000000     7.280000000     1.522000000
H     4.622000000     7.919000000     1.594000000
C     3.585000000     6.622000000     0.263000000
H     4.307000000     6.755000000    -0.538000000
C     2.416000000     5.816000000     0.068000000
O     2.153000000     5.260000000    -1.158000000
C     2.940000000     4.231000000    -1.650000000
C     3.214000000     4.180000000    -3.047000000
H     2.903000000     5.017000000    -3.667000000
C     3.957000000     3.126000000    -3.568000000
O     4.301000000     2.926000000    -4.900000000
C     3.733000000     1.904000000    -5.683000000
C     2.391000000     1.658000000    -5.764000000
H     1.766000000     2.384000000    -5.248000000
C     4.678000000     1.151000000    -6.379000000
H     5.741000000     1.364000000    -6.294000000
C     4.192000000     0.034000000    -6.997000000
H     4.878000000    -0.596000000    -7.558000000
C     2.861000000    -0.325000000    -7.076000000
H     2.439000000    -1.185000000    -7.590000000
C     1.929000000     0.517000000    -6.378000000
O     0.542000000     0.246000000    -6.379000000
C     0.004000000    -0.899000000    -5.742000000
C    -1.302000000    -1.291000000    -6.042000000
H    -1.818000000    -0.829000000    -6.880000000
C    -1.940000000    -2.281000000    -5.358000000
O    -3.293000000    -2.503000000    -5.673000000
C    -4.233000000    -3.076000000    -4.854000000
C    -4.767000000    -2.295000000    -3.800000000
H    -4.563000000    -1.236000000    -3.661000000
C    -4.704000000    -4.441000000    -4.908000000
H    -4.236000000    -5.152000000    -5.584000000
C    -5.666000000    -4.982000000    -4.011000000
H    -6.074000000    -5.975000000    -4.179000000
C    -6.204000000    -4.136000000    -2.998000000
H    -6.972000000    -4.446000000    -2.294000000
C    -5.829000000    -2.796000000    -2.971000000
O    -6.511000000    -1.909000000    -2.081000000
C    -5.855000000    -1.309000000    -1.016000000
C    -6.157000000    -0.015000000    -0.549000000
H    -6.906000000     0.561000000    -1.086000000
C    -5.381000000     0.490000000     0.496000000
O    -5.589000000     1.794000000     0.880000000
C    -5.425000000     2.075000000     2.178000000
C    -6.096000000     1.349000000     3.157000000
H    -6.633000000     0.444000000     2.886000000
C    -5.995000000     1.711000000     4.529000000
H    -6.567000000     1.191000000     5.292000000
C    -5.286000000     2.830000000     4.890000000
H    -5.269000000     3.161000000     5.925000000
C    -4.613000000     3.584000000     3.883000000
C    -4.648000000     3.157000000     2.584000000
H    -4.019000000     3.612000000     1.824000000
C    -1.936000000     0.588000000    -0.818000000
H    -2.627000000     0.143000000    -1.530000000
C    -0.869000000    -0.109000000    -0.331000000
H    -0.798000000    -1.120000000    -0.723000000
C     0.068000000     0.517000000     0.471000000
H     0.949000000    -0.002000000     0.948000000
C    -0.052000000     1.904000000     0.752000000
H     0.755000000     2.390000000     1.294000000
C    -1.112000000     2.624000000     0.251000000
H    -1.180000000     3.659000000     0.576000000
C    -2.103000000     1.918000000    -0.492000000
C    -3.183000000     2.655000000    -1.212000000
O    -3.455000000     3.822000000    -0.968000000
O    -3.586000000     2.150000000    -2.218000000
O    -2.156000000     5.979000000     0.154000000
H    -2.574000000     5.178000000    -0.164000000
H    -1.637000000     6.288000000    -0.589000000
O    -4.508000000     2.006000000    -7.000000000
H    -3.886000000     1.678000000    -6.351000000
H    -4.578000000     1.299000000    -7.642000000
O    -7.094000000     2.989000000    -5.557000000
H    -6.361000000     2.983000000    -6.173000000
H    -6.682000000     3.056000000    -4.695000000
O    -3.145000000     8.122000000     1.394000000
H    -4.029000000     7.779000000     1.527000000
H    -2.650000000     7.380000000     1.045000000
O    -5.906000000     4.583000000    -0.498000000
H    -6.145000000     4.351000000     0.399000000
H    -5.008000000     4.267000000    -0.596000000
O    -0.702000000     5.428000000    -4.636000000
H    -1.342000000     5.833000000    -4.049000000
H    -0.251000000     4.784000000    -4.090000000
O    -8.212000000     5.529000000    -1.483000000
H    -7.897000000     5.856000000    -2.326000000
H    -7.431000000     5.181000000    -1.054000000
O    -2.403000000     6.748000000    -2.902000000
H    -1.643000000     6.861000000    -2.331000000
H    -3.099000000     6.446000000    -2.318000000
O    -6.048000000     2.574000000    -3.115000000
H    -5.218000000     2.713000000    -2.660000000
H    -6.705000000     2.571000000    -2.419000000
O    -7.306000000     4.597000000     2.188000000
H    -7.566000000     4.939000000     3.043000000
H    -7.555000000     3.673000000     2.213000000
O    -7.301000000     0.251000000    -4.818000000
H    -6.519000000     0.540000000    -4.348000000
H    -7.668000000     1.054000000    -5.188000000
O    -4.557000000     8.847000000    -3.914000000
H    -4.234000000     8.008000000    -3.585000000
H    -5.508000000     8.790000000    -3.820000000
O    -1.753000000     4.931000000    -7.071000000
H    -0.920000000     5.299000000    -7.365000000
H    -1.659000000     4.855000000    -6.121000000
O    -4.554000000     5.447000000    -7.106000000
H    -4.287000000     5.163000000    -6.232000000
H    -3.785000000     5.291000000    -7.654000000
O    -4.258000000     4.121000000    -4.573000000
H    -4.100000000     4.265000000    -3.640000000
H    -4.778000000     3.318000000    -4.606000000
O    -2.980000000     1.223000000    -4.933000000
H    -2.517000000     0.387000000    -4.873000000
H    -3.192000000     1.445000000    -4.027000000
O    -5.553000000     6.858000000     1.982000000
H    -6.358000000     6.387000000     2.195000000
H    -5.827000000     7.529000000     1.356000000
O    -0.202000000     6.880000000    -1.498000000
H     0.654000000     6.460000000    -1.578000000
H    -0.012000000     7.817000000    -1.517000000
O    -0.108000000     3.379000000    -3.094000000
H    -0.345000000     3.672000000    -2.214000000
H    -0.627000000     2.587000000    -3.231000000
