215
-1462.04516
C     3.950000000     2.727000000    -2.220000000
H     4.413000000     1.872000000    -2.706000000
C     3.714000000     2.590000000    -0.841000000
C     2.857000000     3.579000000    -0.209000000
H     2.641000000     3.532000000     0.856000000
C     4.062000000     1.303000000    -0.037000000
O     4.848000000     0.353000000    -0.846000000
H     3.161000000     0.711000000     0.181000000
O     4.784000000     1.505000000     1.214000000
C     4.218000000     0.786000000     2.289000000
C     3.360000000     1.466000000     3.176000000
H     3.238000000     2.545000000     3.126000000
C     2.618000000     0.772000000     4.156000000
O     1.583000000     1.391000000     4.829000000
C     2.756000000    -0.649000000     4.220000000
C     1.913000000    -1.439000000     5.148000000
H     2.556000000    -2.238000000     5.521000000
C     0.545000000    -1.894000000     4.539000000
C     0.443000000    -3.155000000     3.956000000
H     1.306000000    -3.810000000     4.046000000
H     1.711000000    -0.887000000     6.068000000
C     3.598000000    -1.347000000     3.342000000
H     3.817000000    -2.409000000     3.416000000
C     4.346000000    -0.634000000     2.432000000
C     5.175000000    -1.437000000     1.425000000
H     5.577000000    -2.391000000     1.772000000
H     6.037000000    -0.869000000     1.070000000
C     4.463000000    -1.800000000     0.144000000
C     3.823000000    -3.073000000     0.034000000
H     3.781000000    -3.732000000     0.898000000
C     4.341000000    -0.925000000    -0.956000000
C     3.708000000    -1.308000000    -2.170000000
H     3.629000000    -0.627000000    -3.014000000
C     3.152000000    -2.599000000    -2.225000000
O     2.460000000    -2.886000000    -3.387000000
C     1.010000000    -2.943000000    -3.241000000
C     0.287000000    -2.214000000    -4.418000000
C    -1.050000000    -2.367000000    -4.753000000
H    -1.631000000    -3.050000000    -4.138000000
C     1.090000000    -1.338000000    -5.164000000
H     2.141000000    -1.226000000    -4.911000000
O     0.458000000    -4.284000000    -3.010000000
H     0.871000000    -2.303000000    -2.358000000
C     3.200000000    -3.515000000    -1.123000000
C     2.532000000    -4.934000000    -1.119000000
H     3.065000000    -5.675000000    -0.520000000
H     2.641000000    -5.359000000    -2.119000000
C     1.102000000    -4.864000000    -0.696000000
C     0.745000000    -4.997000000     0.601000000
H     1.472000000    -5.290000000     1.355000000
C     0.131000000    -4.568000000    -1.719000000
C    -1.216000000    -4.294000000    -1.318000000
H    -1.905000000    -4.124000000    -2.141000000
C    -1.526000000    -4.247000000     0.036000000
O    -2.731000000    -3.904000000     0.457000000
C    -2.932000000    -2.663000000     1.079000000
C    -4.144000000    -1.874000000     0.521000000
C    -4.722000000    -2.182000000    -0.682000000
H    -4.167000000    -2.913000000    -1.265000000
C    -4.709000000    -0.761000000     1.239000000
H    -4.243000000    -0.441000000     2.168000000
O    -2.988000000    -2.835000000     2.543000000
H    -2.012000000    -2.064000000     1.010000000
C    -0.582000000    -4.765000000     1.011000000
C    -0.889000000    -4.838000000     2.497000000
H    -0.179000000    -5.590000000     2.847000000
H    -1.881000000    -5.293000000     2.539000000
C    -0.757000000    -3.508000000     3.261000000
C    -1.803000000    -2.575000000     3.222000000
C    -1.675000000    -1.379000000     3.935000000
H    -2.496000000    -0.681000000     4.074000000
C    -0.506000000    -1.029000000     4.516000000
O    -0.396000000     0.223000000     5.049000000
C     0.297000000     1.209000000     4.252000000
H     0.345000000     0.823000000     3.224000000
C    -0.438000000     2.583000000     4.079000000
C     0.266000000     3.782000000     4.275000000
H     1.333000000     3.811000000     4.484000000
C    -1.821000000     2.695000000     3.859000000
H    -2.453000000     1.811000000     3.835000000
C    -2.399000000     3.893000000     3.813000000
O    -3.815000000     4.062000000     3.681000000
C    -1.740000000     5.062000000     4.028000000
H    -2.157000000     6.047000000     3.830000000
C    -0.373000000     5.050000000     4.160000000
O     0.321000000     6.202000000     4.171000000
C     1.335000000     6.227000000     3.206000000
C     0.943000000     6.025000000     1.869000000
H    -0.090000000     5.742000000     1.681000000
C     2.690000000     6.616000000     3.457000000
H     2.939000000     6.976000000     4.452000000
C     3.584000000     6.610000000     2.335000000
H     4.638000000     6.876000000     2.343000000
C     3.150000000     6.405000000     1.005000000
H     3.885000000     6.240000000     0.222000000
C     1.848000000     6.048000000     0.832000000
O     1.489000000     5.466000000    -0.381000000
C     2.183000000     4.541000000    -0.991000000
C     2.364000000     4.560000000    -2.359000000
H     1.844000000     5.345000000    -2.903000000
C     3.314000000     3.720000000    -2.982000000
O     3.536000000     3.772000000    -4.355000000
C     3.559000000     2.719000000    -5.240000000
C     2.364000000     2.164000000    -5.623000000
H     1.420000000     2.487000000    -5.194000000
C     4.792000000     2.232000000    -5.659000000
H     5.685000000     2.691000000    -5.243000000
C     4.841000000     1.107000000    -6.525000000
H     5.789000000     0.671000000    -6.826000000
C     3.567000000     0.641000000    -6.977000000
H     3.503000000    -0.227000000    -7.629000000
C     2.350000000     1.035000000    -6.440000000
O     1.162000000     0.445000000    -6.831000000
C     0.479000000    -0.545000000    -6.149000000
C    -0.914000000    -0.680000000    -6.450000000
H    -1.325000000     0.012000000    -7.181000000
C    -1.697000000    -1.555000000    -5.685000000
O    -3.071000000    -1.405000000    -5.800000000
C    -3.980000000    -2.177000000    -5.180000000
C    -4.551000000    -1.718000000    -4.000000000
H    -4.155000000    -0.804000000    -3.564000000
C    -4.360000000    -3.429000000    -5.659000000
H    -3.823000000    -3.858000000    -6.502000000
C    -5.461000000    -4.113000000    -5.134000000
H    -5.888000000    -4.977000000    -5.637000000
C    -6.158000000    -3.608000000    -4.047000000
H    -7.051000000    -4.070000000    -3.634000000
C    -5.640000000    -2.431000000    -3.433000000
O    -6.382000000    -1.876000000    -2.379000000
C    -5.900000000    -1.611000000    -1.141000000
C    -6.493000000    -0.585000000    -0.364000000
H    -7.441000000    -0.107000000    -0.595000000
C    -5.917000000    -0.183000000     0.833000000
O    -6.629000000     0.698000000     1.616000000
C    -6.111000000     1.363000000     2.688000000
C    -6.688000000     1.105000000     3.983000000
H    -7.423000000     0.320000000     4.140000000
C    -6.222000000     1.792000000     5.086000000
H    -6.614000000     1.563000000     6.073000000
C    -5.185000000     2.741000000     4.967000000
H    -4.932000000     3.365000000     5.820000000
C    -4.751000000     3.042000000     3.679000000
C    -5.198000000     2.389000000     2.538000000
H    -4.756000000     2.748000000     1.612000000
C    -2.301000000     0.392000000    -1.174000000
H    -2.776000000    -0.090000000    -2.024000000
C    -1.067000000    -0.090000000    -0.881000000
H    -0.711000000    -0.920000000    -1.486000000
C    -0.318000000     0.454000000     0.148000000
H     0.689000000     0.105000000     0.370000000
C    -0.756000000     1.669000000     0.697000000
H    -0.086000000     2.231000000     1.344000000
C    -1.924000000     2.247000000     0.202000000
H    -2.160000000     3.286000000     0.419000000
C    -2.746000000     1.606000000    -0.747000000
C    -3.881000000     2.271000000    -1.401000000
O    -4.335000000     3.325000000    -0.955000000
O    -4.252000000     1.831000000    -2.474000000
O    -3.923000000     5.263000000     1.172000000
H    -4.066000000     4.933000000     2.060000000
H    -4.018000000     4.492000000     0.613000000
O    -3.685000000     1.360000000    -6.868000000
H    -2.990000000     1.634000000    -6.269000000
H    -3.960000000     0.504000000    -6.540000000
O    -7.703000000    -0.493000000    -5.978000000
H    -8.255000000     0.287000000    -5.929000000
H    -6.960000000    -0.297000000    -5.408000000
O    -2.128000000     7.718000000     1.978000000
H    -2.763000000     7.906000000     2.670000000
H    -2.526000000     7.008000000     1.474000000
O    -6.971000000     3.766000000     0.152000000
H    -7.127000000     4.683000000    -0.074000000
H    -6.049000000     3.620000000    -0.059000000
O    -1.525000000     4.915000000    -3.455000000
H    -2.460000000     4.784000000    -3.610000000
H    -1.233000000     4.101000000    -3.046000000
O    -6.357000000     2.627000000    -7.180000000
H    -5.832000000     3.010000000    -6.477000000
H    -5.716000000     2.218000000    -7.761000000
O    -6.964000000     3.180000000    -2.720000000
H    -6.674000000     4.091000000    -2.764000000
H    -6.613000000     2.857000000    -1.890000000
O    -6.610000000     6.402000000    -0.400000000
H    -5.729000000     6.260000000    -0.746000000
H    -6.943000000     7.151000000    -0.894000000
O    -4.342000000     6.078000000    -1.698000000
H    -3.445000000     6.395000000    -1.590000000
H    -4.277000000     5.130000000    -1.579000000
O    -9.023000000     1.750000000     0.067000000
H    -9.315000000     1.141000000     0.746000000
H    -8.085000000     1.855000000     0.228000000
O    -6.112000000     1.038000000    -4.447000000
H    -5.530000000     1.091000000    -3.689000000
H    -6.639000000     1.836000000    -4.401000000
O    -9.235000000     1.896000000    -2.671000000
H    -9.230000000     1.834000000    -1.715000000
H    -8.347000000     2.170000000    -2.898000000
O    -6.179000000     5.622000000    -3.696000000
H    -6.295000000     6.300000000    -4.362000000
H    -5.833000000     6.090000000    -2.936000000
O    -3.920000000     5.058000000    -7.236000000
H    -3.955000000     4.676000000    -6.359000000
H    -2.986000000     5.176000000    -7.409000000
O    -4.018000000     4.293000000    -4.160000000
H    -4.264000000     3.552000000    -3.606000000
H    -4.812000000     4.826000000    -4.213000000
O    -2.368000000     1.795000000    -4.636000000
H    -1.700000000     2.329000000    -4.206000000
H    -3.086000000     1.755000000    -4.004000000
O    -1.754000000     6.959000000    -1.538000000
H    -1.541000000     6.165000000    -2.029000000
H    -0.956000000     7.485000000    -1.574000000
O    -0.263000000     2.676000000    -2.624000000
H     0.578000000     3.076000000    -2.402000000
H    -0.426000000     2.052000000    -1.917000000
