215
-1467.35889
C    -4.974000000    -1.172000000    -0.595000000
H    -5.408000000    -1.017000000    -1.579000000
C    -4.297000000    -0.194000000     0.110000000
C    -3.983000000    -0.382000000     1.511000000
H    -3.481000000     0.436000000     2.022000000
C    -3.834000000     1.086000000    -0.544000000
O    -4.287000000     1.175000000    -1.878000000
H    -2.741000000     1.142000000    -0.428000000
O    -4.337000000     2.279000000     0.139000000
C    -3.302000000     3.124000000     0.390000000
C    -2.832000000     3.249000000     1.731000000
H    -3.363000000     2.828000000     2.582000000
C    -1.708000000     4.044000000     1.921000000
O    -1.091000000     4.038000000     3.225000000
C    -1.091000000     4.786000000     0.937000000
C     0.227000000     5.537000000     1.163000000
H     0.327000000     6.453000000     0.578000000
C     1.471000000     4.679000000     0.934000000
C     2.137000000     4.668000000    -0.305000000
H     1.840000000     5.383000000    -1.067000000
H     0.222000000     5.910000000     2.190000000
C    -1.660000000     4.669000000    -0.350000000
H    -1.287000000     5.210000000    -1.216000000
C    -2.735000000     3.830000000    -0.686000000
C    -3.243000000     3.878000000    -2.122000000
H    -2.992000000     4.885000000    -2.463000000
H    -4.323000000     3.749000000    -2.218000000
C    -2.701000000     2.721000000    -2.953000000
C    -1.635000000     2.918000000    -3.805000000
H    -1.219000000     3.898000000    -4.021000000
C    -3.330000000     1.463000000    -2.822000000
C    -2.801000000     0.369000000    -3.429000000
H    -3.069000000    -0.653000000    -3.175000000
C    -1.604000000     0.516000000    -4.138000000
O    -1.029000000    -0.574000000    -4.739000000
C     0.112000000    -1.132000000    -4.072000000
C     0.010000000    -2.641000000    -3.980000000
C     1.186000000    -3.398000000    -4.044000000
H     2.156000000    -2.911000000    -4.111000000
C    -1.310000000    -3.229000000    -3.924000000
H    -2.253000000    -2.713000000    -4.087000000
O     1.302000000    -0.767000000    -4.783000000
H     0.170000000    -0.720000000    -3.054000000
C    -1.068000000     1.772000000    -4.419000000
C     0.267000000     1.957000000    -5.177000000
H     0.202000000     2.994000000    -5.512000000
H     0.249000000     1.294000000    -6.044000000
C     1.427000000     1.652000000    -4.297000000
C     2.083000000     2.711000000    -3.625000000
H     1.561000000     3.665000000    -3.619000000
C     2.006000000     0.340000000    -4.263000000
C     3.136000000     0.120000000    -3.436000000
H     3.473000000    -0.913000000    -3.431000000
C     3.717000000     1.176000000    -2.715000000
O     4.671000000     0.829000000    -1.756000000
C     4.151000000     0.791000000    -0.371000000
C     4.486000000    -0.553000000     0.268000000
C     4.995000000    -1.646000000    -0.521000000
H     5.229000000    -1.529000000    -1.576000000
C     4.149000000    -0.787000000     1.626000000
H     3.802000000     0.037000000     2.244000000
O     4.636000000     1.995000000     0.277000000
H     3.066000000     0.890000000    -0.520000000
C     3.205000000     2.481000000    -2.776000000
C     3.786000000     3.599000000    -1.967000000
H     3.683000000     4.603000000    -2.385000000
H     4.868000000     3.451000000    -1.952000000
C     3.199000000     3.786000000    -0.554000000
C     3.634000000     2.978000000     0.494000000
C     3.039000000     3.026000000     1.767000000
H     3.462000000     2.278000000     2.433000000
C     1.946000000     3.851000000     2.001000000
O     1.232000000     3.671000000     3.155000000
C     0.010000000     3.042000000     3.212000000
H    -0.126000000     2.309000000     2.402000000
C    -0.019000000     2.201000000     4.489000000
C    -1.248000000     1.975000000     5.114000000
H    -2.194000000     2.369000000     4.751000000
C     1.091000000     1.578000000     4.986000000
H     2.008000000     1.642000000     4.406000000
C     1.052000000     0.897000000     6.217000000
O     2.126000000     0.345000000     6.845000000
C    -0.173000000     0.773000000     6.893000000
H    -0.245000000     0.250000000     7.844000000
C    -1.349000000     1.269000000     6.272000000
O    -2.545000000     1.116000000     6.940000000
C    -3.603000000     0.499000000     6.257000000
C    -3.402000000    -0.504000000     5.316000000
H    -2.430000000    -0.973000000     5.194000000
C    -4.900000000     0.945000000     6.532000000
H    -5.214000000     1.721000000     7.224000000
C    -5.950000000     0.544000000     5.669000000
H    -6.919000000     0.901000000     6.008000000
C    -5.776000000    -0.419000000     4.683000000
H    -6.618000000    -0.808000000     4.115000000
C    -4.505000000    -0.862000000     4.490000000
O    -4.262000000    -1.797000000     3.547000000
C    -4.462000000    -1.561000000     2.203000000
C    -5.093000000    -2.519000000     1.464000000
H    -5.258000000    -3.470000000     1.963000000
C    -5.416000000    -2.362000000     0.083000000
O    -5.935000000    -3.404000000    -0.579000000
C    -5.447000000    -3.714000000    -1.874000000
C    -4.207000000    -4.320000000    -2.084000000
H    -3.504000000    -4.358000000    -1.256000000
C    -6.315000000    -3.451000000    -2.953000000
H    -7.206000000    -2.841000000    -2.826000000
C    -5.834000000    -3.618000000    -4.270000000
H    -6.616000000    -3.428000000    -5.001000000
C    -4.580000000    -4.131000000    -4.480000000
H    -4.217000000    -4.272000000    -5.495000000
C    -3.792000000    -4.595000000    -3.420000000
O    -2.622000000    -5.235000000    -3.715000000
C    -1.344000000    -4.639000000    -3.819000000
C    -0.182000000    -5.369000000    -3.782000000
H    -0.278000000    -6.446000000    -3.675000000
C     1.047000000    -4.771000000    -3.918000000
O     2.152000000    -5.531000000    -3.957000000
C     3.407000000    -5.047000000    -3.620000000
C     3.779000000    -4.669000000    -2.327000000
H     3.012000000    -4.669000000    -1.557000000
C     4.339000000    -4.833000000    -4.619000000
H     4.011000000    -5.064000000    -5.629000000
C     5.611000000    -4.249000000    -4.377000000
H     6.340000000    -3.972000000    -5.135000000
C     5.997000000    -4.057000000    -3.062000000
H     6.979000000    -3.634000000    -2.863000000
C     5.100000000    -4.261000000    -2.054000000
O     5.403000000    -4.015000000    -0.747000000
C     5.049000000    -2.923000000    -0.004000000
C     4.780000000    -3.074000000     1.347000000
H     4.788000000    -4.065000000     1.793000000
C     4.340000000    -1.992000000     2.173000000
O     4.185000000    -2.193000000     3.559000000
C     4.309000000    -1.134000000     4.393000000
C     5.533000000    -0.490000000     4.574000000
H     6.356000000    -0.851000000     3.962000000
C     5.495000000     0.664000000     5.359000000
H     6.397000000     1.235000000     5.563000000
C     4.426000000     0.871000000     6.214000000
H     4.440000000     1.630000000     6.991000000
C     3.255000000     0.118000000     6.054000000
C     3.175000000    -0.859000000     5.044000000
H     2.301000000    -1.447000000     4.774000000
C     1.020000000    -1.999000000     0.475000000
H     1.570000000    -2.925000000     0.332000000
C     1.216000000    -1.024000000    -0.518000000
H     1.962000000    -1.306000000    -1.256000000
C     0.520000000     0.160000000    -0.492000000
H     0.588000000     0.862000000    -1.257000000
C    -0.344000000     0.383000000     0.583000000
H    -0.866000000     1.333000000     0.663000000
C    -0.570000000    -0.592000000     1.567000000
H    -1.428000000    -0.497000000     2.229000000
C     0.127000000    -1.802000000     1.500000000
C    -0.140000000    -2.927000000     2.522000000
O    -1.057000000    -2.829000000     3.243000000
O     0.477000000    -3.984000000     2.426000000
O    -3.093000000    -4.659000000     3.135000000
H    -2.803000000    -3.755000000     3.012000000
H    -2.347000000    -5.190000000     2.855000000
O     0.408000000    -5.581000000     4.541000000
H     0.249000000    -5.098000000     3.730000000
H     0.539000000    -6.486000000     4.258000000
O    -2.916000000    -7.804000000    -0.359000000
H    -3.819000000    -7.775000000    -0.042000000
H    -2.613000000    -8.684000000    -0.137000000
O    -2.118000000    -8.036000000     3.500000000
H    -1.816000000    -7.272000000     3.007000000
H    -2.387000000    -8.663000000     2.828000000
O    -1.025000000    -6.305000000     1.817000000
H    -0.695000000    -5.411000000     1.725000000
H    -1.077000000    -6.635000000     0.920000000
O     3.593000000    -7.473000000     0.889000000
H     3.103000000    -8.131000000     0.397000000
H     3.022000000    -6.705000000     0.896000000
O    -0.459000000    -2.921000000     5.800000000
H    -0.913000000    -2.611000000     5.016000000
H     0.031000000    -3.688000000     5.505000000
O    -4.323000000    -5.879000000     5.983000000
H    -4.483000000    -5.897000000     5.040000000
H    -3.374000000    -5.788000000     6.064000000
O     5.200000000    -4.348000000     5.141000000
H     5.191000000    -3.688000000     4.448000000
H     4.276000000    -4.499000000     5.340000000
O    -1.410000000    -6.264000000     6.529000000
H    -1.656000000    -7.135000000     6.215000000
H    -0.695000000    -5.995000000     5.953000000
O    -0.128000000    -6.605000000    -0.738000000
H     0.417000000    -6.911000000    -1.463000000
H    -0.875000000    -6.181000000    -1.163000000
O     4.265000000    -8.545000000     3.468000000
H     4.031000000    -8.017000000     2.705000000
H     4.793000000    -9.259000000     3.112000000
O     1.419000000    -7.993000000     3.900000000
H     2.367000000    -8.097000000     3.826000000
H     1.072000000    -8.376000000     3.095000000
O    -1.887000000    -4.655000000     8.902000000
H    -1.868000000    -4.991000000     8.006000000
H    -1.775000000    -3.709000000     8.806000000
O    -1.031000000    -2.145000000     8.414000000
H    -0.898000000    -2.284000000     7.476000000
H    -0.155000000    -1.966000000     8.756000000
O     1.865000000    -5.630000000     0.857000000
H     1.094000000    -5.821000000     0.322000000
H     1.614000000    -4.865000000     1.374000000
O     2.785000000    -5.148000000     6.162000000
H     3.231000000    -5.935000000     5.848000000
H     1.964000000    -5.126000000     5.670000000
O    -4.867000000    -6.751000000     3.338000000
H    -4.555000000    -7.433000000     2.743000000
H    -4.340000000    -5.982000000     3.118000000
O     1.083000000    -8.914000000     1.116000000
H     0.793000000    -8.253000000     0.487000000
H     1.543000000    -9.564000000     0.585000000
