215
-1429.76536
C    -5.532000000    -0.676000000    -0.562000000
H    -5.447000000    -0.571000000    -1.641000000
C    -4.981000000     0.347000000     0.222000000
C    -4.939000000     0.175000000     1.610000000
H    -4.602000000     0.994000000     2.240000000
C    -4.150000000     1.500000000    -0.314000000
O    -4.532000000     1.809000000    -1.658000000
H    -3.092000000     1.202000000    -0.275000000
O    -4.191000000     2.677000000     0.610000000
C    -3.098000000     3.388000000     0.757000000
C    -2.445000000     3.329000000     1.967000000
H    -2.751000000     2.714000000     2.809000000
C    -1.240000000     3.936000000     2.175000000
O    -0.650000000     3.686000000     3.404000000
C    -0.650000000     4.678000000     1.141000000
C     0.717000000     5.388000000     1.348000000
H     0.679000000     6.129000000     0.547000000
C     1.892000000     4.446000000     1.029000000
C     2.483000000     4.410000000    -0.218000000
H     2.320000000     5.195000000    -0.952000000
H     0.840000000     5.970000000     2.264000000
C    -1.270000000     4.755000000    -0.041000000
H    -0.878000000     5.395000000    -0.829000000
C    -2.525000000     4.175000000    -0.256000000
C    -3.228000000     4.450000000    -1.561000000
H    -2.888000000     5.320000000    -2.127000000
H    -4.300000000     4.613000000    -1.431000000
C    -2.876000000     3.342000000    -2.576000000
C    -1.684000000     3.439000000    -3.300000000
H    -1.195000000     4.404000000    -3.411000000
C    -3.576000000     2.146000000    -2.627000000
C    -2.996000000     1.058000000    -3.327000000
H    -3.499000000     0.095000000    -3.344000000
C    -1.749000000     1.150000000    -3.921000000
O    -1.385000000    -0.050000000    -4.564000000
C    -0.308000000    -0.787000000    -4.009000000
C    -0.487000000    -2.278000000    -4.064000000
C     0.575000000    -3.120000000    -4.470000000
H     1.508000000    -2.736000000    -4.873000000
C    -1.505000000    -2.848000000    -3.359000000
H    -2.291000000    -2.249000000    -2.907000000
O     0.820000000    -0.373000000    -4.678000000
H    -0.217000000    -0.621000000    -2.926000000
C    -1.117000000     2.366000000    -4.027000000
C     0.135000000     2.473000000    -4.807000000
H     0.343000000     3.528000000    -4.994000000
H     0.003000000     1.912000000    -5.735000000
C     1.367000000     1.981000000    -4.142000000
C     2.243000000     2.877000000    -3.508000000
H     2.045000000     3.943000000    -3.591000000
C     1.604000000     0.610000000    -4.077000000
C     2.767000000     0.148000000    -3.445000000
H     2.968000000    -0.920000000    -3.419000000
C     3.656000000     1.066000000    -2.800000000
O     4.646000000     0.574000000    -2.060000000
C     4.288000000     0.404000000    -0.683000000
C     4.694000000    -0.944000000    -0.163000000
C     4.559000000    -2.076000000    -0.997000000
H     4.151000000    -2.158000000    -2.001000000
C     5.026000000    -1.031000000     1.193000000
H     5.028000000    -0.149000000     1.828000000
O     4.779000000     1.475000000     0.125000000
H     3.194000000     0.290000000    -0.648000000
C     3.342000000     2.411000000    -2.766000000
C     4.072000000     3.398000000    -1.940000000
H     4.087000000     4.381000000    -2.416000000
H     5.133000000     3.144000000    -2.002000000
C     3.550000000     3.458000000    -0.490000000
C     3.871000000     2.465000000     0.450000000
C     3.238000000     2.511000000     1.712000000
H     3.565000000     1.724000000     2.386000000
C     2.310000000     3.510000000     1.977000000
O     1.742000000     3.467000000     3.238000000
C     0.460000000     2.804000000     3.342000000
H     0.363000000     2.118000000     2.488000000
C     0.511000000     1.848000000     4.542000000
C    -0.736000000     1.413000000     5.036000000
H    -1.676000000     1.800000000     4.650000000
C     1.661000000     1.321000000     5.041000000
H     2.620000000     1.597000000     4.611000000
C     1.544000000     0.309000000     6.020000000
O     2.656000000    -0.313000000     6.463000000
C     0.318000000    -0.044000000     6.583000000
H     0.282000000    -0.836000000     7.327000000
C    -0.847000000     0.526000000     6.078000000
O    -2.078000000     0.323000000     6.749000000
C    -3.276000000     0.428000000     6.097000000
C    -3.610000000    -0.611000000     5.312000000
H    -2.954000000    -1.472000000     5.218000000
C    -4.070000000     1.510000000     6.286000000
H    -3.653000000     2.358000000     6.821000000
C    -5.292000000     1.596000000     5.572000000
H    -5.827000000     2.537000000     5.472000000
C    -5.670000000     0.569000000     4.766000000
H    -6.545000000     0.690000000     4.132000000
C    -4.838000000    -0.535000000     4.625000000
O    -5.123000000    -1.392000000     3.544000000
C    -5.349000000    -1.055000000     2.211000000
C    -5.930000000    -2.038000000     1.430000000
H    -6.167000000    -2.952000000     1.968000000
C    -6.106000000    -1.870000000     0.051000000
O    -6.672000000    -2.905000000    -0.664000000
C    -6.060000000    -3.475000000    -1.787000000
C    -4.647000000    -3.746000000    -1.770000000
H    -4.031000000    -3.463000000    -0.921000000
C    -6.827000000    -3.770000000    -2.921000000
H    -7.891000000    -3.546000000    -2.908000000
C    -6.268000000    -4.446000000    -3.989000000
H    -6.828000000    -4.595000000    -4.908000000
C    -4.912000000    -4.871000000    -3.889000000
H    -4.388000000    -5.394000000    -4.685000000
C    -4.132000000    -4.406000000    -2.837000000
O    -2.807000000    -4.828000000    -2.779000000
C    -1.701000000    -4.187000000    -3.351000000
C    -0.681000000    -4.970000000    -3.780000000
H    -0.711000000    -6.047000000    -3.638000000
C     0.445000000    -4.539000000    -4.474000000
O     1.468000000    -5.453000000    -4.737000000
C     2.713000000    -5.200000000    -4.222000000
C     2.955000000    -5.097000000    -2.863000000
H     2.220000000    -5.413000000    -2.127000000
C     3.844000000    -5.132000000    -5.076000000
H     3.713000000    -5.233000000    -6.150000000
C     5.092000000    -4.723000000    -4.597000000
H     5.868000000    -4.574000000    -5.343000000
C     5.261000000    -4.331000000    -3.303000000
H     6.220000000    -3.910000000    -3.010000000
C     4.183000000    -4.612000000    -2.409000000
O     4.364000000    -4.485000000    -1.030000000
C     4.804000000    -3.293000000    -0.444000000
C     5.064000000    -3.414000000     0.901000000
H     4.932000000    -4.377000000     1.388000000
C     5.171000000    -2.299000000     1.733000000
O     5.250000000    -2.514000000     3.086000000
C     5.112000000    -1.571000000     4.112000000
C     6.243000000    -0.740000000     4.326000000
H     7.094000000    -0.936000000     3.678000000
C     6.130000000     0.291000000     5.281000000
H     6.931000000     1.005000000     5.458000000
C     4.986000000     0.400000000     6.033000000
H     4.846000000     1.195000000     6.761000000
C     3.864000000    -0.385000000     5.846000000
C     3.960000000    -1.371000000     4.868000000
H     3.150000000    -2.052000000     4.623000000
C     0.552000000    -2.313000000     0.844000000
H     1.077000000    -3.263000000     0.783000000
C     0.737000000    -1.433000000    -0.222000000
H     1.434000000    -1.664000000    -1.023000000
C     0.253000000    -0.145000000    -0.115000000
H     0.631000000     0.546000000    -0.790000000
C    -0.547000000     0.226000000     0.919000000
H    -0.988000000     1.220000000     0.923000000
C    -0.810000000    -0.708000000     1.964000000
H    -1.291000000    -0.412000000     2.893000000
C    -0.170000000    -1.955000000     1.910000000
C    -0.515000000    -3.024000000     2.952000000
O    -1.312000000    -2.832000000     3.899000000
O    -0.021000000    -4.093000000     2.781000000
O    -3.659000000    -3.639000000     4.118000000
H    -4.209000000    -2.856000000     4.090000000
H    -2.763000000    -3.304000000     4.078000000
O    -0.515000000    -6.989000000     8.708000000
H     0.110000000    -6.320000000     8.428000000
H    -1.051000000    -7.156000000     7.933000000
O     2.039000000    -5.116000000     4.339000000
H     1.514000000    -4.801000000     3.603000000
H     1.594000000    -5.913000000     4.627000000
O    -3.671000000    -5.902000000     1.069000000
H    -4.351000000    -5.827000000     1.739000000
H    -3.862000000    -6.729000000     0.627000000
O    -2.861000000    -7.998000000     4.673000000
H    -2.104000000    -7.612000000     4.233000000
H    -3.593000000    -7.831000000     4.080000000
O    -1.086000000    -1.701000000     9.621000000
H    -0.659000000    -0.845000000     9.600000000
H    -0.460000000    -2.292000000     9.203000000
O    -1.551000000    -6.431000000     2.786000000
H    -1.400000000    -5.561000000     3.156000000
H    -2.216000000    -6.291000000     2.111000000
O     3.432000000    -7.369000000     1.616000000
H     3.696000000    -7.960000000     0.911000000
H     2.604000000    -6.993000000     1.317000000
O    -0.489000000    -4.068000000     6.064000000
H    -0.768000000    -3.247000000     5.657000000
H    -0.588000000    -4.723000000     5.374000000
O    -5.110000000    -5.723000000     4.888000000
H    -5.051000000    -6.300000000     4.126000000
H    -4.460000000    -5.040000000     4.721000000
O     4.725000000    -5.032000000     5.099000000
H     3.942000000    -4.904000000     4.564000000
H     4.551000000    -5.838000000     5.587000000
O    -5.307000000    -3.321000000     7.693000000
H    -4.374000000    -3.477000000     7.543000000
H    -5.749000000    -3.998000000     7.181000000
O    -2.960000000    -7.119000000     7.122000000
H    -3.074000000    -7.261000000     6.183000000
H    -3.168000000    -7.965000000     7.519000000
O    -1.243000000    -7.426000000    -0.515000000
H    -1.070000000    -7.812000000    -1.374000000
H    -1.967000000    -6.818000000    -0.667000000
O     0.629000000    -7.382000000     4.671000000
H     1.367000000    -7.862000000     4.295000000
H     0.180000000    -7.003000000     3.915000000
O    -2.808000000    -4.287000000     7.351000000
H    -1.988000000    -4.018000000     6.937000000
H    -2.913000000    -5.205000000     7.100000000
O     0.982000000    -6.135000000     1.302000000
H     0.189000000    -6.653000000     1.167000000
H     0.671000000    -5.320000000     1.697000000
O     1.510000000    -5.334000000     7.531000000
H     2.017000000    -5.924000000     6.973000000
H     0.967000000    -4.835000000     6.920000000
O    -0.284000000    -8.630000000     1.980000000
H    -0.326000000    -8.367000000     1.061000000
H    -0.696000000    -7.909000000     2.455000000
