215
-1438.18221
C    -4.985000000    -1.186000000    -0.526000000
H    -4.594000000    -1.279000000    -1.537000000
C    -4.954000000     0.063000000     0.110000000
C    -5.605000000     0.254000000     1.325000000
H    -5.627000000     1.233000000     1.796000000
C    -4.092000000     1.050000000    -0.588000000
O    -4.323000000     1.068000000    -1.973000000
H    -3.019000000     0.837000000    -0.470000000
O    -4.408000000     2.309000000    -0.069000000
C    -3.371000000     3.263000000     0.121000000
C    -2.795000000     3.351000000     1.375000000
H    -3.277000000     2.757000000     2.147000000
C    -1.673000000     4.149000000     1.581000000
O    -1.058000000     4.205000000     2.791000000
C    -0.966000000     4.729000000     0.541000000
C     0.326000000     5.550000000     0.775000000
H     0.601000000     6.214000000    -0.047000000
C     1.536000000     4.521000000     0.739000000
C     2.217000000     4.381000000    -0.494000000
H     1.930000000     5.029000000    -1.317000000
H     0.242000000     6.154000000     1.681000000
C    -1.559000000     4.619000000    -0.745000000
H    -1.078000000     5.075000000    -1.607000000
C    -2.707000000     3.883000000    -0.941000000
C    -3.229000000     3.762000000    -2.381000000
H    -2.941000000     4.620000000    -2.992000000
H    -4.317000000     3.835000000    -2.326000000
C    -2.688000000     2.472000000    -2.946000000
C    -1.563000000     2.548000000    -3.809000000
H    -1.043000000     3.503000000    -3.806000000
C    -3.251000000     1.232000000    -2.719000000
C    -2.670000000     0.085000000    -3.266000000
H    -2.991000000    -0.944000000    -3.123000000
C    -1.495000000     0.229000000    -4.016000000
O    -0.878000000    -0.917000000    -4.502000000
C     0.256000000    -1.390000000    -3.853000000
C     0.227000000    -2.911000000    -3.760000000
C     1.398000000    -3.637000000    -3.751000000
H     2.379000000    -3.169000000    -3.720000000
C    -1.004000000    -3.583000000    -3.762000000
H    -1.910000000    -2.999000000    -3.621000000
O     1.397000000    -1.010000000    -4.659000000
H     0.286000000    -0.901000000    -2.868000000
C    -0.941000000     1.419000000    -4.300000000
C     0.299000000     1.622000000    -5.082000000
H     0.374000000     2.678000000    -5.352000000
H     0.203000000     1.065000000    -6.016000000
C     1.569000000     1.354000000    -4.295000000
C     2.252000000     2.421000000    -3.726000000
H     1.876000000     3.440000000    -3.744000000
C     2.105000000     0.094000000    -4.220000000
C     3.260000000    -0.187000000    -3.423000000
H     3.555000000    -1.228000000    -3.323000000
C     3.831000000     0.862000000    -2.677000000
O     4.786000000     0.518000000    -1.749000000
C     4.347000000     0.526000000    -0.342000000
C     4.919000000    -0.650000000     0.378000000
C     5.150000000    -1.798000000    -0.315000000
H     5.090000000    -1.762000000    -1.399000000
C     4.972000000    -0.718000000     1.760000000
H     4.775000000     0.139000000     2.398000000
O     4.632000000     1.799000000     0.432000000
H     3.265000000     0.336000000    -0.282000000
C     3.325000000     2.193000000    -2.817000000
C     3.880000000     3.339000000    -1.967000000
H     3.695000000     4.264000000    -2.516000000
H     4.963000000     3.308000000    -1.828000000
C     3.245000000     3.415000000    -0.623000000
C     3.624000000     2.743000000     0.472000000
C     2.942000000     2.814000000     1.659000000
H     3.209000000     2.253000000     2.551000000
C     1.973000000     3.739000000     1.818000000
O     1.336000000     3.636000000     2.980000000
C    -0.063000000     3.135000000     3.051000000
H    -0.116000000     2.444000000     2.196000000
C    -0.323000000     2.349000000     4.286000000
C    -1.539000000     2.413000000     4.990000000
H    -2.262000000     3.121000000     4.595000000
C     0.687000000     1.493000000     4.659000000
H     1.622000000     1.459000000     4.106000000
C     0.439000000     0.546000000     5.663000000
O     1.302000000    -0.533000000     5.905000000
C    -0.799000000     0.531000000     6.310000000
H    -1.073000000    -0.263000000     7.000000000
C    -1.826000000     1.440000000     5.969000000
O    -3.046000000     1.200000000     6.569000000
C    -4.234000000     1.307000000     5.829000000
C    -4.611000000     0.244000000     5.036000000
H    -4.095000000    -0.713000000     5.060000000
C    -4.955000000     2.493000000     5.741000000
H    -4.671000000     3.334000000     6.368000000
C    -6.194000000     2.493000000     5.122000000
H    -6.743000000     3.432000000     5.125000000
C    -6.571000000     1.396000000     4.376000000
H    -7.526000000     1.377000000     3.856000000
C    -5.736000000     0.331000000     4.247000000
O    -6.050000000    -0.733000000     3.428000000
C    -5.946000000    -0.907000000     2.083000000
C    -5.849000000    -2.168000000     1.471000000
H    -6.125000000    -3.063000000     2.022000000
C    -5.308000000    -2.296000000     0.177000000
O    -5.200000000    -3.536000000    -0.357000000
C    -4.910000000    -3.845000000    -1.670000000
C    -3.759000000    -4.501000000    -2.015000000
H    -3.056000000    -4.753000000    -1.224000000
C    -5.815000000    -3.491000000    -2.706000000
H    -6.687000000    -2.892000000    -2.454000000
C    -5.530000000    -3.748000000    -4.022000000
H    -6.270000000    -3.394000000    -4.734000000
C    -4.344000000    -4.430000000    -4.355000000
H    -4.068000000    -4.677000000    -5.377000000
C    -3.455000000    -4.848000000    -3.339000000
O    -2.289000000    -5.565000000    -3.637000000
C    -1.103000000    -4.971000000    -3.778000000
C     0.116000000    -5.679000000    -3.739000000
H     0.074000000    -6.765000000    -3.743000000
C     1.344000000    -4.995000000    -3.695000000
O     2.546000000    -5.713000000    -3.491000000
C     3.747000000    -5.113000000    -3.204000000
C     4.174000000    -4.740000000    -1.904000000
H     3.469000000    -4.925000000    -1.098000000
C     4.624000000    -4.979000000    -4.306000000
H     4.314000000    -5.256000000    -5.311000000
C     5.936000000    -4.503000000    -4.028000000
H     6.596000000    -4.281000000    -4.863000000
C     6.386000000    -4.199000000    -2.771000000
H     7.413000000    -3.898000000    -2.581000000
C     5.485000000    -4.240000000    -1.648000000
O     6.015000000    -3.993000000    -0.409000000
C     5.624000000    -2.936000000     0.332000000
C     5.817000000    -2.890000000     1.707000000
H     6.253000000    -3.650000000     2.350000000
C     5.439000000    -1.812000000     2.483000000
O     5.468000000    -1.904000000     3.868000000
C     4.752000000    -1.141000000     4.719000000
C     5.491000000    -0.138000000     5.355000000
H     6.541000000     0.086000000     5.188000000
C     4.796000000     0.626000000     6.290000000
H     5.300000000     1.409000000     6.851000000
C     3.429000000     0.478000000     6.539000000
H     2.907000000     1.057000000     7.296000000
C     2.678000000    -0.433000000     5.711000000
C     3.345000000    -1.304000000     4.875000000
H     2.750000000    -2.046000000     4.349000000
C     1.271000000    -1.477000000    -0.079000000
H     2.215000000    -1.891000000    -0.424000000
C     0.677000000    -0.226000000    -0.550000000
H     1.232000000     0.427000000    -1.218000000
C    -0.452000000     0.267000000     0.060000000
H    -0.834000000     1.315000000    -0.111000000
C    -1.088000000    -0.469000000     0.993000000
H    -2.015000000    -0.133000000     1.450000000
C    -0.647000000    -1.665000000     1.422000000
H    -1.190000000    -2.181000000     2.209000000
C     0.599000000    -2.195000000     0.953000000
C     1.069000000    -3.546000000     1.360000000
O     0.464000000    -4.217000000     2.190000000
O     2.064000000    -4.122000000     0.849000000
O     0.438000000    -6.440000000    -0.605000000
H     0.321000000    -7.049000000    -1.333000000
H     1.295000000    -6.662000000    -0.242000000
O    -1.487000000    -5.281000000     0.874000000
H    -0.948000000    -5.415000000     0.095000000
H    -0.963000000    -4.707000000     1.432000000
O     2.490000000    -4.789000000     4.908000000
H     3.294000000    -5.303000000     4.838000000
H     2.014000000    -4.976000000     4.099000000
O     2.430000000    -8.930000000     3.808000000
H     2.334000000    -8.144000000     3.269000000
H     2.990000000    -9.509000000     3.290000000
O     1.912000000    -6.552000000     2.470000000
H     1.527000000    -5.797000000     2.025000000
H     2.825000000    -6.559000000     2.184000000
O     3.662000000    -8.361000000    -3.436000000
H     3.114000000    -7.851000000    -2.840000000
H     4.023000000    -7.714000000    -4.042000000
O    -3.183000000    -5.683000000     3.110000000
H    -2.629000000    -5.580000000     2.336000000
H    -2.657000000    -6.210000000     3.712000000
O     7.017000000    -4.176000000     5.195000000
H     6.216000000    -4.660000000     4.993000000
H     7.500000000    -4.158000000     4.369000000
O    -0.654000000    -6.348000000     6.589000000
H     0.220000000    -6.577000000     6.904000000
H    -0.505000000    -5.971000000     5.722000000
O     3.218000000    -7.652000000    -0.254000000
H     3.290000000    -7.137000000     0.549000000
H     4.102000000    -7.984000000    -0.407000000
O    -0.765000000    -8.111000000     2.118000000
H    -1.162000000    -7.902000000     1.273000000
H     0.031000000    -7.581000000     2.147000000
O    -2.555000000    -9.191000000     3.637000000
H    -1.935000000    -8.723000000     3.079000000
H    -2.300000000   -10.111000000     3.561000000
O    -0.825000000    -4.602000000     4.528000000
H    -0.329000000    -4.608000000     3.709000000
H    -0.905000000    -3.675000000     4.752000000
O     1.952000000    -7.550000000     6.342000000
H     1.884000000    -7.566000000     5.388000000
H     2.870000000    -7.339000000     6.514000000
O     1.635000000    -3.104000000     6.865000000
H     1.897000000    -3.790000000     6.251000000
H     1.807000000    -2.287000000     6.398000000
O     4.975000000    -5.917000000     4.320000000
H     5.135000000    -6.810000000     4.627000000
H     4.944000000    -5.995000000     3.366000000
O     4.129000000    -5.508000000     1.513000000
H     4.707000000    -5.009000000     0.936000000
H     3.318000000    -4.999000000     1.537000000
O    -3.040000000    -7.621000000     0.116000000
H    -2.586000000    -6.801000000     0.309000000
H    -3.948000000    -7.458000000     0.370000000
O     1.605000000    -9.949000000    -0.137000000
H     2.300000000    -9.334000000     0.097000000
H     1.250000000    -9.607000000    -0.958000000
