215
-1438.15923
C    -4.743000000    -1.808000000     0.172000000
H    -4.723000000    -1.865000000    -0.913000000
C    -4.675000000    -0.597000000     0.814000000
C    -4.691000000    -0.594000000     2.189000000
H    -4.505000000     0.355000000     2.686000000
C    -4.218000000     0.692000000     0.088000000
O    -4.762000000     0.667000000    -1.255000000
H    -3.122000000     0.699000000    -0.007000000
O    -4.633000000     1.817000000     0.856000000
C    -3.717000000     2.833000000     0.902000000
C    -3.068000000     2.932000000     2.128000000
H    -3.348000000     2.238000000     2.916000000
C    -2.030000000     3.785000000     2.273000000
O    -1.252000000     3.725000000     3.412000000
C    -1.699000000     4.550000000     1.116000000
C    -0.447000000     5.481000000     1.133000000
H    -0.624000000     6.387000000     0.551000000
C     0.860000000     4.783000000     0.616000000
C     1.359000000     4.841000000    -0.701000000
H     0.862000000     5.450000000    -1.452000000
H    -0.315000000     5.901000000     2.132000000
C    -2.452000000     4.500000000    -0.080000000
H    -2.135000000     5.147000000    -0.894000000
C    -3.436000000     3.555000000    -0.219000000
C    -4.121000000     3.492000000    -1.554000000
H    -4.156000000     4.448000000    -2.079000000
H    -5.159000000     3.290000000    -1.284000000
C    -3.526000000     2.421000000    -2.460000000
C    -2.549000000     2.737000000    -3.415000000
H    -2.362000000     3.791000000    -3.608000000
C    -3.911000000     1.106000000    -2.264000000
C    -3.368000000     0.094000000    -3.065000000
H    -3.595000000    -0.958000000    -2.908000000
C    -2.296000000     0.368000000    -3.904000000
O    -1.682000000    -0.629000000    -4.432000000
C    -0.296000000    -0.854000000    -4.031000000
C    -0.078000000    -2.388000000    -3.706000000
C     1.170000000    -2.959000000    -3.832000000
H     1.974000000    -2.294000000    -4.136000000
C    -1.212000000    -3.190000000    -3.398000000
H    -2.244000000    -2.851000000    -3.426000000
O     0.674000000    -0.380000000    -4.981000000
H    -0.076000000    -0.383000000    -3.061000000
C    -1.880000000     1.698000000    -4.099000000
C    -0.833000000     2.170000000    -5.101000000
H    -0.970000000     3.127000000    -5.608000000
H    -0.927000000     1.413000000    -5.882000000
C     0.576000000     2.003000000    -4.635000000
C     1.206000000     3.107000000    -4.028000000
H     0.766000000     4.101000000    -4.013000000
C     1.251000000     0.806000000    -4.583000000
C     2.469000000     0.722000000    -3.911000000
H     2.954000000    -0.250000000    -3.901000000
C     3.082000000     1.874000000    -3.405000000
O     4.206000000     1.655000000    -2.611000000
C     3.815000000     1.464000000    -1.180000000
C     4.593000000     0.279000000    -0.713000000
C     5.355000000    -0.545000000    -1.542000000
H     5.532000000    -0.388000000    -2.603000000
C     4.496000000    -0.033000000     0.646000000
H     3.897000000     0.508000000     1.374000000
O     4.226000000     2.601000000    -0.531000000
H     2.730000000     1.286000000    -1.170000000
C     2.421000000     3.024000000    -3.381000000
C     2.965000000     4.189000000    -2.544000000
H     2.699000000     5.151000000    -2.986000000
H     4.053000000     4.196000000    -2.628000000
C     2.527000000     4.153000000    -1.077000000
C     3.170000000     3.363000000    -0.139000000
C     2.717000000     3.289000000     1.201000000
H     3.205000000     2.734000000     1.998000000
C     1.534000000     3.983000000     1.539000000
O     1.121000000     3.863000000     2.808000000
C     0.039000000     2.959000000     3.280000000
H    -0.040000000     2.182000000     2.505000000
C     0.337000000     2.093000000     4.478000000
C    -0.705000000     1.219000000     4.960000000
H    -1.722000000     1.294000000     4.583000000
C     1.610000000     1.967000000     5.040000000
H     2.369000000     2.698000000     4.775000000
C     1.964000000     0.945000000     5.884000000
O     3.290000000     0.708000000     6.344000000
C     0.906000000     0.097000000     6.301000000
H     1.092000000    -0.743000000     6.965000000
C    -0.414000000     0.332000000     5.987000000
O    -1.303000000    -0.608000000     6.461000000
C    -2.653000000    -0.500000000     6.475000000
C    -3.302000000    -1.185000000     5.369000000
H    -2.765000000    -1.622000000     4.531000000
C    -3.453000000     0.271000000     7.374000000
H    -3.003000000     0.694000000     8.268000000
C    -4.812000000     0.301000000     7.260000000
H    -5.421000000     0.874000000     7.955000000
C    -5.394000000    -0.374000000     6.152000000
H    -6.462000000    -0.294000000     5.964000000
C    -4.686000000    -1.083000000     5.208000000
O    -5.304000000    -1.715000000     4.172000000
C    -5.092000000    -1.788000000     2.883000000
C    -5.474000000    -2.972000000     2.234000000
H    -5.834000000    -3.825000000     2.804000000
C    -5.274000000    -2.946000000     0.876000000
O    -5.729000000    -4.061000000     0.160000000
C    -5.190000000    -4.468000000    -1.095000000
C    -3.805000000    -4.599000000    -1.287000000
H    -3.101000000    -4.366000000    -0.492000000
C    -6.070000000    -4.548000000    -2.216000000
H    -7.107000000    -4.270000000    -2.042000000
C    -5.606000000    -4.986000000    -3.448000000
H    -6.255000000    -4.932000000    -4.319000000
C    -4.229000000    -5.224000000    -3.619000000
H    -3.890000000    -5.526000000    -4.607000000
C    -3.371000000    -4.985000000    -2.534000000
O    -2.057000000    -5.368000000    -2.716000000
C    -1.009000000    -4.542000000    -3.050000000
C     0.272000000    -5.079000000    -3.143000000
H     0.372000000    -6.151000000    -2.987000000
C     1.373000000    -4.346000000    -3.624000000
O     2.572000000    -4.972000000    -3.601000000
C     3.769000000    -4.279000000    -3.747000000
C     4.451000000    -3.684000000    -2.723000000
H     4.000000000    -3.631000000    -1.735000000
C     4.391000000    -4.491000000    -5.022000000
H     3.791000000    -5.064000000    -5.723000000
C     5.674000000    -3.969000000    -5.215000000
H     6.183000000    -4.324000000    -6.107000000
C     6.330000000    -3.301000000    -4.215000000
H     7.302000000    -2.831000000    -4.340000000
C     5.722000000    -3.173000000    -2.960000000
O     6.435000000    -2.494000000    -1.972000000
C     5.749000000    -1.740000000    -1.080000000
C     5.590000000    -2.129000000     0.203000000
H     5.871000000    -3.106000000     0.587000000
C     4.936000000    -1.261000000     1.092000000
O     4.651000000    -1.676000000     2.360000000
C     4.925000000    -0.944000000     3.456000000
C     6.241000000    -0.525000000     3.643000000
H     6.967000000    -0.781000000     2.876000000
C     6.617000000     0.082000000     4.857000000
H     7.669000000     0.305000000     5.016000000
C     5.588000000     0.570000000     5.667000000
H     5.836000000     1.279000000     6.452000000
C     4.220000000     0.237000000     5.462000000
C     3.915000000    -0.556000000     4.343000000
H     2.923000000    -0.978000000     4.205000000
C     1.414000000    -1.846000000    -0.052000000
H     1.986000000    -2.754000000    -0.228000000
C     1.297000000    -0.794000000    -0.985000000
H     1.732000000    -0.923000000    -1.973000000
C     0.568000000     0.391000000    -0.758000000
H     0.579000000     1.297000000    -1.338000000
C    -0.134000000     0.512000000     0.410000000
H    -0.701000000     1.411000000     0.638000000
C    -0.203000000    -0.619000000     1.319000000
H    -0.812000000    -0.566000000     2.219000000
C     0.620000000    -1.770000000     1.105000000
C     0.586000000    -2.985000000     2.014000000
O    -0.167000000    -2.976000000     2.917000000
O     1.210000000    -3.971000000     1.704000000
O    -2.945000000    -4.858000000     5.696000000
H    -2.238000000    -4.782000000     5.056000000
H    -2.811000000    -5.716000000     6.100000000
O     5.936000000    -5.604000000     1.044000000
H     5.477000000    -6.214000000     0.465000000
H     5.241000000    -5.191000000     1.556000000
O    -3.434000000    -6.705000000     1.568000000
H    -3.323000000    -6.984000000     0.659000000
H    -3.015000000    -5.845000000     1.607000000
O     0.945000000    -6.263000000     6.664000000
H     1.343000000    -7.103000000     6.434000000
H     1.633000000    -5.793000000     7.135000000
O     3.752000000    -4.393000000     3.000000000
H     3.799000000    -3.466000000     3.233000000
H     2.960000000    -4.465000000     2.466000000
O    -4.986000000    -6.669000000     4.050000000
H    -4.573000000    -5.931000000     4.498000000
H    -4.505000000    -6.749000000     3.226000000
O     1.932000000    -7.985000000    -0.857000000
H     1.320000000    -8.220000000    -1.554000000
H     1.432000000    -7.402000000    -0.286000000
O    -0.442000000    -5.561000000     4.109000000
H     0.240000000    -5.364000000     3.467000000
H    -0.225000000    -5.014000000     4.864000000
O    -0.831000000    -8.622000000     1.645000000
H    -0.805000000    -8.476000000     2.591000000
H    -0.837000000    -7.743000000     1.267000000
O     0.381000000    -2.929000000     5.464000000
H     0.167000000    -2.913000000     4.532000000
H    -0.032000000    -2.142000000     5.819000000
O    -2.961000000    -8.351000000    -1.373000000
H    -2.287000000    -7.689000000    -1.521000000
H    -2.574000000    -9.164000000    -1.698000000
O     5.011000000    -6.063000000     5.202000000
H     4.706000000    -5.876000000     6.090000000
H     4.317000000    -5.728000000     4.634000000
O     4.716000000    -7.442000000    -0.399000000
H     3.860000000    -7.407000000    -0.824000000
H     5.227000000    -8.046000000    -0.938000000
O    -2.351000000    -4.384000000     2.571000000
H    -1.933000000    -3.532000000     2.442000000
H    -1.733000000    -4.875000000     3.113000000
O     3.792000000    -5.412000000     7.542000000
H     3.912000000    -5.377000000     8.491000000
H     3.021000000    -4.869000000     7.378000000
O     3.832000000    -1.409000000     8.360000000
H     4.030000000    -0.664000000     8.928000000
H     3.629000000    -1.017000000     7.511000000
O     1.562000000    -3.697000000     7.615000000
H     1.106000000    -3.119000000     8.227000000
H     1.205000000    -3.467000000     6.757000000
O     0.065000000    -5.914000000     0.328000000
H    -0.500000000    -5.455000000    -0.293000000
H     0.388000000    -5.227000000     0.911000000
O    -1.034000000    -8.230000000     4.530000000
H    -1.490000000    -8.559000000     5.305000000
H    -0.887000000    -7.302000000     4.715000000
