215
-1448.72599
C    -5.447000000    -0.712000000    -0.127000000
H    -5.583000000    -0.517000000    -1.188000000
C    -4.804000000     0.251000000     0.694000000
C    -4.556000000     0.001000000     2.032000000
H    -3.908000000     0.693000000     2.564000000
C    -4.094000000     1.432000000    -0.025000000
O    -4.586000000     1.717000000    -1.266000000
H    -3.008000000     1.258000000    -0.060000000
O    -4.149000000     2.625000000     0.837000000
C    -3.053000000     3.395000000     0.985000000
C    -2.246000000     3.257000000     2.130000000
H    -2.727000000     2.671000000     2.909000000
C    -1.004000000     3.746000000     2.210000000
O    -0.422000000     3.467000000     3.363000000
C    -0.587000000     4.627000000     1.205000000
C     0.779000000     5.312000000     1.272000000
H     0.858000000     6.166000000     0.596000000
C     1.869000000     4.314000000     0.921000000
C     2.411000000     4.293000000    -0.396000000
H     2.002000000     4.966000000    -1.145000000
H     0.782000000     5.665000000     2.305000000
C    -1.366000000     4.919000000     0.061000000
H    -1.036000000     5.499000000    -0.797000000
C    -2.636000000     4.306000000    -0.005000000
C    -3.386000000     4.346000000    -1.369000000
H    -3.200000000     5.336000000    -1.790000000
H    -4.458000000     4.348000000    -1.162000000
C    -2.985000000     3.147000000    -2.299000000
C    -1.947000000     3.320000000    -3.208000000
H    -1.541000000     4.328000000    -3.244000000
C    -3.670000000     2.010000000    -2.300000000
C    -3.341000000     0.990000000    -3.113000000
H    -3.777000000    -0.002000000    -3.203000000
C    -2.218000000     1.040000000    -3.987000000
O    -1.854000000    -0.106000000    -4.635000000
C    -0.644000000    -0.726000000    -4.186000000
C    -0.674000000    -2.233000000    -3.994000000
C     0.398000000    -3.035000000    -4.379000000
H     1.224000000    -2.635000000    -4.962000000
C    -1.725000000    -2.817000000    -3.306000000
H    -2.622000000    -2.242000000    -3.088000000
O     0.386000000    -0.290000000    -5.059000000
H    -0.506000000    -0.271000000    -3.193000000
C    -1.550000000     2.251000000    -4.096000000
C    -0.397000000     2.467000000    -5.021000000
H    -0.404000000     3.545000000    -5.192000000
H    -0.615000000     2.030000000    -5.998000000
C     0.930000000     1.979000000    -4.468000000
C     1.765000000     2.790000000    -3.734000000
H     1.487000000     3.835000000    -3.624000000
C     1.286000000     0.653000000    -4.624000000
C     2.492000000     0.169000000    -4.026000000
H     2.570000000    -0.915000000    -4.042000000
C     3.262000000     1.015000000    -3.248000000
O     4.258000000     0.475000000    -2.502000000
C     3.949000000     0.416000000    -1.146000000
C     4.204000000    -0.912000000    -0.532000000
C     4.576000000    -1.994000000    -1.334000000
H     4.607000000    -1.834000000    -2.409000000
C     4.067000000    -1.140000000     0.779000000
H     3.753000000    -0.297000000     1.389000000
O     4.666000000     1.385000000    -0.300000000
H     2.876000000     0.584000000    -0.973000000
C     2.952000000     2.411000000    -3.081000000
C     3.815000000     3.380000000    -2.330000000
H     3.808000000     4.353000000    -2.827000000
H     4.862000000     3.073000000    -2.287000000
C     3.389000000     3.375000000    -0.860000000
C     3.813000000     2.418000000     0.097000000
C     3.307000000     2.366000000     1.406000000
H     3.758000000     1.741000000     2.172000000
C     2.389000000     3.334000000     1.826000000
O     1.960000000     3.305000000     3.073000000
C     0.725000000     2.565000000     3.239000000
H     0.545000000     1.942000000     2.350000000
C     0.798000000     1.767000000     4.548000000
C    -0.379000000     1.328000000     5.181000000
H    -1.402000000     1.562000000     4.899000000
C     2.004000000     1.297000000     5.080000000
H     2.979000000     1.469000000     4.630000000
C     1.988000000     0.513000000     6.242000000
O     3.219000000    -0.005000000     6.673000000
C     0.889000000     0.094000000     6.903000000
H     0.905000000    -0.542000000     7.785000000
C    -0.334000000     0.571000000     6.394000000
O    -1.498000000     0.026000000     6.952000000
C    -2.737000000     0.287000000     6.355000000
C    -3.193000000    -0.652000000     5.416000000
H    -2.711000000    -1.587000000     5.143000000
C    -3.487000000     1.376000000     6.780000000
H    -3.012000000     2.067000000     7.472000000
C    -4.792000000     1.541000000     6.235000000
H    -5.336000000     2.436000000     6.527000000
C    -5.254000000     0.655000000     5.261000000
H    -6.232000000     0.852000000     4.830000000
C    -4.466000000    -0.441000000     4.868000000
O    -5.034000000    -1.314000000     3.975000000
C    -5.170000000    -1.134000000     2.640000000
C    -5.854000000    -2.064000000     1.801000000
H    -6.138000000    -2.990000000     2.293000000
C    -5.964000000    -1.907000000     0.427000000
O    -6.692000000    -2.774000000    -0.324000000
C    -6.027000000    -3.342000000    -1.364000000
C    -4.721000000    -3.911000000    -1.202000000
H    -4.255000000    -3.889000000    -0.221000000
C    -6.627000000    -3.422000000    -2.656000000
H    -7.597000000    -2.980000000    -2.868000000
C    -5.964000000    -3.954000000    -3.732000000
H    -6.413000000    -3.832000000    -4.714000000
C    -4.682000000    -4.480000000    -3.556000000
H    -4.195000000    -5.003000000    -4.375000000
C    -4.062000000    -4.400000000    -2.305000000
O    -2.769000000    -4.750000000    -2.191000000
C    -1.731000000    -4.208000000    -2.989000000
C    -0.631000000    -5.035000000    -3.411000000
H    -0.624000000    -6.112000000    -3.262000000
C     0.399000000    -4.383000000    -4.149000000
O     1.473000000    -5.072000000    -4.717000000
C     2.836000000    -4.783000000    -4.434000000
C     3.298000000    -4.797000000    -3.185000000
H     2.533000000    -4.910000000    -2.421000000
C     3.626000000    -4.485000000    -5.500000000
H     3.194000000    -4.574000000    -6.493000000
C     4.957000000    -4.049000000    -5.209000000
H     5.675000000    -3.963000000    -6.020000000
C     5.442000000    -3.980000000    -3.921000000
H     6.487000000    -3.720000000    -3.767000000
C     4.655000000    -4.389000000    -2.880000000
O     5.072000000    -4.332000000    -1.562000000
C     4.699000000    -3.254000000    -0.818000000
C     4.772000000    -3.390000000     0.542000000
H     5.019000000    -4.323000000     1.042000000
C     4.388000000    -2.349000000     1.358000000
O     4.279000000    -2.519000000     2.773000000
C     4.771000000    -1.621000000     3.763000000
C     6.131000000    -1.329000000     3.914000000
H     6.829000000    -1.653000000     3.146000000
C     6.533000000    -0.584000000     4.996000000
H     7.568000000    -0.276000000     5.120000000
C     5.580000000    -0.190000000     6.005000000
H     5.965000000     0.312000000     6.889000000
C     4.197000000    -0.424000000     5.819000000
C     3.876000000    -1.179000000     4.696000000
H     2.841000000    -1.470000000     4.529000000
C     0.643000000    -1.824000000    -0.249000000
H     1.102000000    -2.768000000    -0.530000000
C     0.701000000    -0.691000000    -1.077000000
H     1.387000000    -0.708000000    -1.919000000
C     0.103000000     0.499000000    -0.617000000
H     0.202000000     1.402000000    -1.220000000
C    -0.581000000     0.606000000     0.589000000
H    -1.040000000     1.550000000     0.871000000
C    -0.712000000    -0.598000000     1.341000000
H    -1.224000000    -0.561000000     2.299000000
C    -0.080000000    -1.754000000     0.920000000
C    -0.026000000    -2.944000000     1.756000000
O    -0.653000000    -2.969000000     2.775000000
O     0.201000000    -4.051000000     1.335000000
O    -3.309000000    -3.685000000     2.438000000
H    -3.677000000    -2.925000000     2.889000000
H    -2.362000000    -3.582000000     2.530000000
O     0.777000000    -7.811000000     6.786000000
H     0.540000000    -8.738000000     6.757000000
H     0.762000000    -7.532000000     5.870000000
O     2.794000000    -5.142000000     4.403000000
H     1.853000000    -5.279000000     4.506000000
H     2.873000000    -4.237000000     4.101000000
O    -4.548000000    -6.131000000     1.466000000
H    -3.834000000    -5.755000000     1.981000000
H    -4.151000000    -6.328000000     0.617000000
O     2.275000000    -8.727000000    -1.117000000
H     1.610000000    -8.736000000    -1.806000000
H     2.007000000    -8.017000000    -0.534000000
O    -2.325000000    -8.412000000     4.888000000
H    -1.543000000    -8.137000000     4.411000000
H    -2.568000000    -9.247000000     4.489000000
O    -1.079000000    -5.935000000     2.670000000
H    -0.639000000    -5.150000000     2.345000000
H    -1.320000000    -6.419000000     1.879000000
O     4.114000000    -6.695000000     0.547000000
H     4.491000000    -6.862000000    -0.317000000
H     3.209000000    -6.439000000     0.368000000
O    -0.280000000    -4.473000000     4.843000000
H    -0.373000000    -3.923000000     4.064000000
H    -0.918000000    -5.175000000     4.717000000
O    -3.790000000    -5.031000000     4.989000000
H    -3.742000000    -5.985000000     4.914000000
H    -3.547000000    -4.711000000     4.120000000
O     4.805000000    -4.592000000     6.882000000
H     4.164000000    -4.734000000     6.185000000
H     5.078000000    -5.473000000     7.140000000
O    -5.449000000    -3.493000000     6.374000000
H    -5.433000000    -2.712000000     5.821000000
H    -4.987000000    -4.158000000     5.863000000
O    -1.245000000    -6.699000000     0.015000000
H    -1.531000000    -7.128000000    -0.791000000
H    -1.374000000    -5.766000000    -0.151000000
O     4.749000000    -7.208000000     4.341000000
H     4.119000000    -6.522000000     4.122000000
H     4.308000000    -8.023000000     4.103000000
O     2.299000000    -8.217000000     2.233000000
H     2.920000000    -7.882000000     1.586000000
H     2.543000000    -9.136000000     2.346000000
O     0.368000000    -7.581000000     4.111000000
H     0.104000000    -6.843000000     3.561000000
H     1.200000000    -7.872000000     3.738000000
O     1.491000000    -6.037000000     0.101000000
H     0.572000000    -6.291000000     0.011000000
H     1.460000000    -5.156000000     0.474000000
O     0.359000000    -4.867000000     7.658000000
H     0.218000000    -4.615000000     6.746000000
H     0.242000000    -5.817000000     7.665000000
O     0.081000000    -9.008000000     0.963000000
H     0.903000000    -8.698000000     1.343000000
H    -0.397000000    -8.209000000     0.741000000
