215
-1451.69643
C    -4.653000000    -0.131000000    -0.856000000
H    -4.132000000    -0.283000000    -1.798000000
C    -4.417000000     1.055000000    -0.191000000
C    -4.966000000     1.216000000     1.112000000
H    -4.703000000     2.128000000     1.641000000
C    -3.464000000     2.099000000    -0.849000000
O    -3.719000000     2.289000000    -2.207000000
H    -2.479000000     1.621000000    -0.743000000
O    -3.514000000     3.377000000    -0.088000000
C    -2.306000000     3.950000000     0.171000000
C    -1.905000000     3.894000000     1.487000000
H    -2.517000000     3.476000000     2.282000000
C    -0.654000000     4.255000000     1.890000000
O    -0.220000000     3.887000000     3.139000000
C     0.158000000     4.817000000     0.939000000
C     1.653000000     5.089000000     1.312000000
H     1.908000000     6.018000000     0.798000000
C     2.632000000     3.906000000     0.979000000
C     3.459000000     3.788000000    -0.157000000
H     3.459000000     4.638000000    -0.835000000
H     1.757000000     5.516000000     2.312000000
C    -0.258000000     5.016000000    -0.350000000
H     0.357000000     5.622000000    -1.011000000
C    -1.457000000     4.480000000    -0.782000000
C    -1.912000000     4.645000000    -2.207000000
H    -1.288000000     5.439000000    -2.623000000
H    -2.947000000     4.970000000    -2.329000000
C    -1.618000000     3.368000000    -2.927000000
C    -0.406000000     3.228000000    -3.648000000
H     0.304000000     4.050000000    -3.688000000
C    -2.557000000     2.291000000    -3.012000000
C    -2.306000000     1.159000000    -3.735000000
H    -3.034000000     0.355000000    -3.815000000
C    -1.111000000     1.103000000    -4.434000000
O    -0.899000000    -0.170000000    -4.843000000
C    -0.110000000    -0.975000000    -3.941000000
C    -0.598000000    -2.387000000    -3.949000000
C     0.176000000    -3.376000000    -3.271000000
H     1.076000000    -3.028000000    -2.771000000
C    -1.877000000    -2.778000000    -4.379000000
H    -2.454000000    -2.026000000    -4.911000000
O     1.267000000    -0.954000000    -4.513000000
H    -0.185000000    -0.458000000    -2.973000000
C    -0.163000000     2.052000000    -4.430000000
C     1.189000000     1.929000000    -5.093000000
H     1.547000000     2.929000000    -5.346000000
H     0.962000000     1.321000000    -5.972000000
C     2.206000000     1.284000000    -4.137000000
C     3.024000000     2.100000000    -3.410000000
H     2.988000000     3.186000000    -3.438000000
C     2.232000000    -0.113000000    -3.939000000
C     3.241000000    -0.712000000    -3.195000000
H     3.230000000    -1.779000000    -2.985000000
C     4.079000000     0.137000000    -2.498000000
O     4.948000000    -0.435000000    -1.588000000
C     4.481000000    -0.495000000    -0.224000000
C     4.586000000    -1.779000000     0.539000000
C     4.683000000    -2.980000000    -0.238000000
H     4.739000000    -2.991000000    -1.324000000
C     4.561000000    -1.905000000     1.958000000
H     4.475000000    -1.011000000     2.571000000
O     5.087000000     0.572000000     0.589000000
H     3.391000000    -0.343000000    -0.227000000
C     3.952000000     1.510000000    -2.590000000
C     4.782000000     2.431000000    -1.679000000
H     4.931000000     3.406000000    -2.148000000
H     5.815000000     2.077000000    -1.636000000
C     4.149000000     2.608000000    -0.355000000
C     4.314000000     1.693000000     0.696000000
C     3.540000000     1.832000000     1.821000000
H     3.595000000     1.186000000     2.693000000
C     2.710000000     2.921000000     1.963000000
O     2.006000000     2.948000000     3.155000000
C     0.623000000     2.673000000     3.172000000
H     0.307000000     2.153000000     2.256000000
C     0.219000000     1.792000000     4.375000000
C    -1.146000000     1.793000000     4.755000000
H    -1.911000000     2.321000000     4.192000000
C     1.145000000     0.968000000     5.004000000
H     2.197000000     0.987000000     4.729000000
C     0.749000000     0.203000000     6.056000000
O     1.558000000    -0.805000000     6.597000000
C    -0.570000000     0.193000000     6.476000000
H    -0.844000000    -0.514000000     7.256000000
C    -1.510000000     0.931000000     5.811000000
O    -2.806000000     0.792000000     6.269000000
C    -3.900000000     1.290000000     5.577000000
C    -4.450000000     0.615000000     4.475000000
H    -3.929000000    -0.251000000     4.074000000
C    -4.493000000     2.496000000     5.972000000
H    -4.170000000     3.061000000     6.843000000
C    -5.588000000     3.042000000     5.254000000
H    -6.026000000     4.032000000     5.361000000
C    -6.164000000     2.309000000     4.214000000
H    -7.024000000     2.727000000     3.698000000
C    -5.574000000     1.120000000     3.834000000
O    -6.164000000     0.314000000     2.929000000
C    -5.682000000     0.175000000     1.685000000
C    -5.918000000    -0.999000000     1.011000000
H    -6.495000000    -1.853000000     1.357000000
C    -5.420000000    -1.123000000    -0.254000000
O    -5.793000000    -2.272000000    -0.922000000
C    -5.793000000    -2.402000000    -2.266000000
C    -4.889000000    -3.316000000    -2.835000000
H    -4.279000000    -3.927000000    -2.174000000
C    -6.557000000    -1.668000000    -3.146000000
H    -7.153000000    -0.840000000    -2.773000000
C    -6.387000000    -1.729000000    -4.525000000
H    -7.099000000    -1.300000000    -5.226000000
C    -5.579000000    -2.748000000    -5.088000000
H    -5.585000000    -3.024000000    -6.139000000
C    -4.722000000    -3.449000000    -4.239000000
O    -3.732000000    -4.341000000    -4.707000000
C    -2.408000000    -4.050000000    -4.292000000
C    -1.675000000    -5.008000000    -3.580000000
H    -2.070000000    -6.016000000    -3.482000000
C    -0.418000000    -4.645000000    -3.077000000
O     0.307000000    -5.688000000    -2.473000000
C     1.671000000    -5.752000000    -2.580000000
C     2.536000000    -5.696000000    -1.427000000
H     2.112000000    -5.532000000    -0.440000000
C     2.271000000    -5.773000000    -3.813000000
H     1.617000000    -5.767000000    -4.681000000
C     3.695000000    -5.807000000    -3.978000000
H     4.215000000    -5.652000000    -4.920000000
C     4.484000000    -5.714000000    -2.828000000
H     5.523000000    -5.393000000    -2.851000000
C     3.957000000    -5.700000000    -1.557000000
O     4.709000000    -5.421000000    -0.466000000
C     4.666000000    -4.272000000     0.352000000
C     4.519000000    -4.318000000     1.749000000
H     4.503000000    -5.303000000     2.207000000
C     4.646000000    -3.205000000     2.602000000
O     4.501000000    -3.396000000     3.982000000
C     4.358000000    -2.447000000     4.901000000
C     5.294000000    -1.423000000     5.023000000
H     6.243000000    -1.512000000     4.499000000
C     5.081000000    -0.329000000     5.838000000
H     5.823000000     0.448000000     6.008000000
C     3.835000000    -0.155000000     6.422000000
H     3.601000000     0.664000000     7.097000000
C     2.807000000    -1.100000000     6.187000000
C     3.105000000    -2.279000000     5.472000000
H     2.278000000    -2.982000000     5.410000000
C     0.859000000    -2.719000000     1.710000000
H     1.480000000    -3.545000000     2.047000000
C     1.154000000    -1.968000000     0.576000000
H     2.047000000    -2.098000000    -0.030000000
C     0.232000000    -1.090000000     0.120000000
H     0.420000000    -0.632000000    -0.797000000
C    -0.885000000    -0.753000000     0.806000000
H    -1.417000000     0.105000000     0.402000000
C    -1.240000000    -1.477000000     1.947000000
H    -2.193000000    -1.373000000     2.460000000
C    -0.318000000    -2.432000000     2.450000000
C    -0.647000000    -3.138000000     3.774000000
O    -1.673000000    -2.932000000     4.434000000
O    -0.049000000    -4.202000000     3.983000000
O     3.846000000    -7.596000000     4.720000000
H     3.204000000    -6.922000000     4.500000000
H     3.862000000    -7.609000000     5.677000000
O    -3.931000000    -3.946000000     3.065000000
H    -4.551000000    -3.843000000     3.787000000
H    -3.094000000    -3.653000000     3.424000000
O    -0.250000000    -3.452000000     7.107000000
H    -0.522000000    -3.485000000     6.190000000
H    -0.765000000    -2.740000000     7.485000000
O    -4.563000000    -0.817000000     8.825000000
H    -4.167000000    -1.399000000     8.176000000
H    -3.844000000    -0.255000000     9.113000000
O     0.204000000    -8.151000000     7.861000000
H    -0.438000000    -8.813000000     8.118000000
H     0.137000000    -8.109000000     6.907000000
O    -2.316000000    -7.033000000    -0.303000000
H    -2.218000000    -6.081000000    -0.309000000
H    -2.386000000    -7.261000000     0.624000000
O    -4.031000000    -6.450000000     5.813000000
H    -4.365000000    -5.555000000     5.750000000
H    -3.132000000    -6.394000000     5.488000000
O     2.207000000    -5.029000000     7.461000000
H     1.684000000    -4.228000000     7.455000000
H     1.972000000    -5.462000000     8.282000000
O    -5.415000000    -3.831000000     5.485000000
H    -6.193000000    -3.678000000     4.948000000
H    -5.748000000    -3.874000000     6.382000000
O    -3.089000000    -7.531000000     2.633000000
H    -2.793000000    -7.034000000     3.395000000
H    -3.937000000    -7.146000000     2.410000000
O    -3.182000000    -2.341000000     6.540000000
H    -2.593000000    -2.459000000     5.795000000
H    -4.060000000    -2.398000000     6.163000000
O    -1.711000000    -6.300000000     4.517000000
H    -1.292000000    -5.499000000     4.202000000
H    -0.989000000    -6.834000000     4.849000000
O     0.383000000    -8.029000000     5.230000000
H     0.908000000    -8.829000000     5.199000000
H     1.012000000    -7.337000000     5.432000000
O     1.965000000    -5.613000000     4.853000000
H     1.549000000    -4.772000000     4.666000000
H     2.334000000    -5.509000000     5.730000000
O    -2.551000000    -4.375000000     0.665000000
H    -3.090000000    -4.235000000     1.443000000
H    -2.277000000    -3.496000000     0.402000000
O     1.418000000    -8.260000000     0.560000000
H     2.259000000    -7.815000000     0.669000000
H     0.773000000    -7.639000000     0.898000000
O    -4.990000000    -5.968000000     1.417000000
H    -4.931000000    -5.146000000     1.905000000
H    -4.642000000    -5.757000000     0.550000000
O     0.249000000    -5.537000000     9.243000000
H    -0.166000000    -6.370000000     9.019000000
H    -0.020000000    -4.940000000     8.545000000
O     0.812000000    -5.974000000     2.062000000
H     1.266000000    -5.937000000     2.904000000
H     0.033000000    -5.431000000     2.186000000
