215
-1479.53578
C    -5.032000000    -0.925000000    -0.232000000
H    -4.505000000    -1.154000000    -1.154000000
C    -4.856000000     0.394000000     0.212000000
C    -5.397000000     0.728000000     1.450000000
H    -5.278000000     1.705000000     1.911000000
C    -3.956000000     1.378000000    -0.489000000
O    -4.137000000     1.441000000    -1.925000000
H    -2.920000000     1.056000000    -0.310000000
O    -4.163000000     2.670000000     0.024000000
C    -3.098000000     3.519000000     0.253000000
C    -2.532000000     3.578000000     1.551000000
H    -2.996000000     3.053000000     2.381000000
C    -1.361000000     4.235000000     1.829000000
O    -0.731000000     3.966000000     3.052000000
C    -0.707000000     4.904000000     0.772000000
C     0.696000000     5.487000000     1.022000000
H     0.823000000     6.307000000     0.312000000
C     1.767000000     4.389000000     0.724000000
C     2.354000000     4.344000000    -0.549000000
H     2.100000000     5.192000000    -1.180000000
H     0.688000000     5.919000000     2.025000000
C    -1.254000000     4.984000000    -0.524000000
H    -0.731000000     5.462000000    -1.349000000
C    -2.442000000     4.239000000    -0.730000000
C    -2.910000000     4.078000000    -2.101000000
H    -2.405000000     4.843000000    -2.696000000
H    -3.997000000     4.113000000    -2.192000000
C    -2.427000000     2.851000000    -2.789000000
C    -1.362000000     2.961000000    -3.675000000
H    -0.747000000     3.857000000    -3.711000000
C    -3.115000000     1.632000000    -2.712000000
C    -2.665000000     0.466000000    -3.264000000
H    -3.137000000    -0.492000000    -3.065000000
C    -1.587000000     0.578000000    -4.143000000
O    -1.133000000    -0.532000000    -4.710000000
C     0.012000000    -1.186000000    -4.123000000
C    -0.256000000    -2.729000000    -3.839000000
C     0.885000000    -3.447000000    -3.475000000
H     1.892000000    -3.041000000    -3.528000000
C    -1.568000000    -3.285000000    -3.794000000
H    -2.425000000    -2.625000000    -3.905000000
O     1.207000000    -0.821000000    -4.887000000
H     0.094000000    -0.737000000    -3.122000000
C    -0.901000000     1.831000000    -4.385000000
C     0.330000000     1.908000000    -5.312000000
H     0.356000000     2.893000000    -5.781000000
H     0.355000000     1.191000000    -6.135000000
C     1.567000000     1.571000000    -4.484000000
C     2.228000000     2.604000000    -3.895000000
H     1.876000000     3.631000000    -3.926000000
C     1.983000000     0.213000000    -4.379000000
C     3.042000000    -0.063000000    -3.517000000
H     3.313000000    -1.104000000    -3.364000000
C     3.736000000     0.963000000    -2.882000000
O     4.676000000     0.579000000    -2.024000000
C     4.331000000     0.334000000    -0.670000000
C     5.158000000    -0.793000000    -0.072000000
C     5.518000000    -1.924000000    -0.786000000
H     5.404000000    -1.885000000    -1.866000000
C     5.245000000    -0.951000000     1.311000000
H     5.028000000    -0.081000000     1.926000000
O     4.621000000     1.497000000     0.037000000
H     3.252000000     0.161000000    -0.543000000
C     3.336000000     2.306000000    -3.055000000
C     4.002000000     3.429000000    -2.255000000
H     3.878000000     4.444000000    -2.637000000
H     5.071000000     3.218000000    -2.329000000
C     3.423000000     3.444000000    -0.840000000
C     3.683000000     2.478000000     0.156000000
C     3.102000000     2.554000000     1.397000000
H     3.336000000     1.886000000     2.223000000
C     2.131000000     3.433000000     1.666000000
O     1.502000000     3.370000000     2.908000000
C     0.222000000     2.804000000     2.929000000
H    -0.015000000     2.325000000     1.967000000
C     0.049000000     1.820000000     4.064000000
C    -1.142000000     1.723000000     4.806000000
H    -1.976000000     2.375000000     4.559000000
C     1.019000000     0.832000000     4.323000000
H     1.963000000     0.793000000     3.785000000
C     0.862000000    -0.181000000     5.285000000
O     1.782000000    -1.182000000     5.469000000
C    -0.297000000    -0.237000000     6.034000000
H    -0.357000000    -1.024000000     6.782000000
C    -1.339000000     0.677000000     5.759000000
O    -2.627000000     0.395000000     6.276000000
C    -3.761000000     0.895000000     5.723000000
C    -4.535000000     0.155000000     4.792000000
H    -4.170000000    -0.800000000     4.422000000
C    -4.295000000     2.062000000     6.238000000
H    -3.823000000     2.633000000     7.033000000
C    -5.479000000     2.637000000     5.811000000
H    -5.851000000     3.606000000     6.133000000
C    -6.203000000     1.974000000     4.793000000
H    -7.144000000     2.377000000     4.427000000
C    -5.734000000     0.732000000     4.301000000
O    -6.526000000     0.056000000     3.455000000
C    -6.092000000    -0.250000000     2.195000000
C    -6.140000000    -1.531000000     1.759000000
H    -6.704000000    -2.232000000     2.369000000
C    -5.648000000    -1.888000000     0.507000000
O    -5.766000000    -3.162000000     0.039000000
C    -5.524000000    -3.553000000    -1.278000000
C    -4.422000000    -4.365000000    -1.558000000
H    -3.884000000    -4.704000000    -0.676000000
C    -6.380000000    -3.088000000    -2.269000000
H    -7.226000000    -2.422000000    -2.116000000
C    -6.090000000    -3.313000000    -3.586000000
H    -6.643000000    -2.773000000    -4.351000000
C    -4.945000000    -4.107000000    -3.929000000
H    -4.582000000    -4.105000000    -4.953000000
C    -4.105000000    -4.627000000    -2.871000000
O    -2.957000000    -5.273000000    -3.235000000
C    -1.756000000    -4.586000000    -3.344000000
C    -0.608000000    -5.274000000    -2.932000000
H    -0.604000000    -6.319000000    -2.633000000
C     0.659000000    -4.697000000    -2.940000000
O     1.641000000    -5.405000000    -2.307000000
C     2.988000000    -5.303000000    -2.593000000
C     3.888000000    -4.870000000    -1.649000000
H     3.544000000    -4.718000000    -0.629000000
C     3.440000000    -5.419000000    -3.969000000
H     2.642000000    -5.523000000    -4.699000000
C     4.758000000    -5.088000000    -4.299000000
H     5.101000000    -4.961000000    -5.323000000
C     5.670000000    -4.731000000    -3.284000000
H     6.619000000    -4.274000000    -3.552000000
C     5.199000000    -4.649000000    -1.960000000
O     6.135000000    -4.255000000    -0.972000000
C     5.880000000    -3.112000000    -0.189000000
C     6.005000000    -3.209000000     1.155000000
H     6.415000000    -4.080000000     1.661000000
C     5.706000000    -2.125000000     1.934000000
O     5.940000000    -2.279000000     3.263000000
C     5.180000000    -1.616000000     4.212000000
C     5.831000000    -0.841000000     5.195000000
H     6.916000000    -0.860000000     5.248000000
C     5.151000000    -0.145000000     6.187000000
H     5.710000000     0.281000000     7.016000000
C     3.761000000    -0.096000000     6.204000000
H     3.255000000     0.381000000     7.040000000
C     3.147000000    -0.981000000     5.323000000
C     3.764000000    -1.640000000     4.287000000
H     3.197000000    -2.220000000     3.563000000
C     1.067000000    -2.054000000     0.703000000
H     1.832000000    -2.781000000     0.445000000
C     0.843000000    -0.962000000    -0.170000000
H     1.444000000    -0.856000000    -1.070000000
C    -0.100000000     0.019000000     0.134000000
H    -0.151000000     0.871000000    -0.438000000
C    -0.802000000    -0.131000000     1.322000000
H    -1.531000000     0.587000000     1.688000000
C    -0.597000000    -1.180000000     2.204000000
H    -1.195000000    -1.171000000     3.112000000
C     0.358000000    -2.188000000     1.883000000
C     0.534000000    -3.396000000     2.886000000
O    -0.437000000    -3.706000000     3.556000000
O     1.641000000    -3.945000000     3.002000000
O    -2.444000000    -3.562000000     1.272000000
H    -1.695000000    -3.025000000     1.015000000
H    -2.876000000    -3.056000000     1.960000000
O     0.055000000    -4.143000000     9.087000000
H     0.686000000    -4.611000000     9.635000000
H     0.236000000    -4.450000000     8.198000000
O     2.853000000    -4.610000000     5.329000000
H     2.498000000    -4.306000000     4.494000000
H     2.126000000    -4.521000000     5.945000000
O    -2.264000000    -7.562000000     5.628000000
H    -1.314000000    -7.679000000     5.634000000
H    -2.422000000    -6.925000000     4.931000000
O    -2.332000000    -2.629000000     6.800000000
H    -2.233000000    -2.274000000     7.684000000
H    -1.484000000    -3.028000000     6.606000000
O    -2.017000000    -5.914000000     3.654000000
H    -1.171000000    -5.468000000     3.631000000
H    -2.478000000    -5.594000000     2.879000000
O    -5.370000000    -4.435000000     4.550000000
H    -5.183000000    -5.253000000     5.009000000
H    -4.509000000    -4.098000000     4.301000000
O    -3.940000000    -5.524000000     7.049000000
H    -3.642000000    -4.628000000     6.888000000
H    -3.203000000    -6.073000000     6.780000000
O    -0.051000000    -4.021000000     6.059000000
H     0.064000000    -4.956000000     5.890000000
H    -0.115000000    -3.627000000     5.189000000
O     2.517000000    -8.774000000     2.724000000
H     3.227000000    -8.894000000     3.355000000
H     2.522000000    -9.577000000     2.203000000
O     0.925000000    -6.402000000     2.295000000
H     0.996000000    -5.522000000     2.665000000
H     1.802000000    -6.773000000     2.387000000
O     4.653000000    -7.552000000     1.516000000
H     3.913000000    -8.037000000     1.882000000
H     4.554000000    -6.666000000     1.866000000
O     1.292000000    -6.358000000     6.996000000
H     1.228000000    -6.951000000     6.248000000
H     2.229000000    -6.311000000     7.185000000
O    -2.826000000    -2.748000000     4.132000000
H    -2.779000000    -2.554000000     5.068000000
H    -2.013000000    -3.217000000     3.944000000
O    -2.591000000    -6.439000000     0.774000000
H    -1.688000000    -6.717000000     0.621000000
H    -2.517000000    -5.528000000     1.059000000
O     0.840000000    -8.232000000     5.173000000
H     0.320000000    -9.034000000     5.226000000
H     1.257000000    -8.274000000     4.312000000
O     4.319000000    -5.488000000     7.589000000
H     3.910000000    -5.454000000     6.724000000
H     4.859000000    -4.699000000     7.630000000
O     3.885000000    -5.352000000     2.608000000
H     4.280000000    -5.146000000     3.456000000
H     3.128000000    -4.770000000     2.550000000
O    -0.010000000    -7.733000000     0.232000000
H     0.468000000    -7.289000000     0.932000000
H     0.660000000    -7.945000000    -0.418000000
