215
-1447.37648
C    -4.679000000    -0.342000000    -1.139000000
H    -4.257000000    -0.195000000    -2.130000000
C    -4.278000000     0.619000000    -0.212000000
C    -4.629000000     0.407000000     1.118000000
H    -4.420000000     1.249000000     1.774000000
C    -3.446000000     1.804000000    -0.626000000
O    -3.710000000     2.218000000    -1.958000000
H    -2.392000000     1.504000000    -0.536000000
O    -3.631000000     2.970000000     0.251000000
C    -2.464000000     3.686000000     0.622000000
C    -1.993000000     3.567000000     1.935000000
H    -2.593000000     2.915000000     2.566000000
C    -0.706000000     4.054000000     2.328000000
O    -0.231000000     3.804000000     3.549000000
C     0.093000000     4.713000000     1.334000000
C     1.519000000     5.172000000     1.669000000
H     1.876000000     5.953000000     0.994000000
C     2.466000000     3.977000000     1.585000000
C     3.196000000     3.881000000     0.360000000
H     2.826000000     4.450000000    -0.489000000
H     1.523000000     5.806000000     2.558000000
C    -0.442000000     4.951000000     0.088000000
H     0.148000000     5.482000000    -0.655000000
C    -1.692000000     4.421000000    -0.314000000
C    -2.207000000     4.637000000    -1.690000000
H    -1.833000000     5.616000000    -1.998000000
H    -3.295000000     4.554000000    -1.725000000
C    -1.785000000     3.522000000    -2.673000000
C    -0.545000000     3.532000000    -3.360000000
H     0.175000000     4.341000000    -3.261000000
C    -2.675000000     2.447000000    -2.806000000
C    -2.352000000     1.378000000    -3.606000000
H    -3.016000000     0.518000000    -3.646000000
C    -1.110000000     1.341000000    -4.254000000
O    -0.742000000     0.237000000    -4.986000000
C     0.098000000    -0.675000000    -4.218000000
C    -0.371000000    -2.072000000    -4.560000000
C     0.520000000    -3.130000000    -4.478000000
H     1.511000000    -2.998000000    -4.051000000
C    -1.654000000    -2.299000000    -5.027000000
H    -2.419000000    -1.542000000    -5.181000000
O     1.431000000    -0.475000000    -4.644000000
H    -0.171000000    -0.438000000    -3.178000000
C    -0.200000000     2.464000000    -4.201000000
C     1.183000000     2.413000000    -4.808000000
H     1.526000000     3.415000000    -5.075000000
H     1.190000000     1.913000000    -5.778000000
C     2.158000000     1.756000000    -3.937000000
C     3.027000000     2.524000000    -3.159000000
H     3.011000000     3.606000000    -3.061000000
C     2.247000000     0.324000000    -3.838000000
C     3.109000000    -0.285000000    -2.942000000
H     3.047000000    -1.361000000    -2.801000000
C     3.966000000     0.508000000    -2.207000000
O     4.723000000    -0.181000000    -1.267000000
C     4.189000000    -0.192000000     0.100000000
C     4.136000000    -1.627000000     0.744000000
C     3.614000000    -2.680000000     0.006000000
H     3.317000000    -2.545000000    -1.031000000
C     4.551000000    -1.865000000     2.031000000
H     5.067000000    -1.058000000     2.544000000
O     4.982000000     0.720000000     0.906000000
H     3.122000000     0.074000000     0.072000000
C     3.866000000     1.888000000    -2.277000000
C     4.658000000     2.642000000    -1.225000000
H     4.835000000     3.569000000    -1.776000000
H     5.645000000     2.201000000    -1.068000000
C     4.018000000     2.800000000     0.187000000
C     4.341000000     1.889000000     1.174000000
C     3.725000000     2.085000000     2.440000000
H     3.953000000     1.395000000     3.248000000
C     2.713000000     3.058000000     2.620000000
O     2.046000000     3.133000000     3.789000000
C     0.679000000     2.680000000     3.681000000
H     0.697000000     1.993000000     2.823000000
C     0.255000000     1.728000000     4.735000000
C    -1.087000000     1.731000000     5.211000000
H    -1.780000000     2.475000000     4.827000000
C     1.051000000     0.746000000     5.210000000
H     2.026000000     0.635000000     4.743000000
C     0.602000000    -0.226000000     6.134000000
O     1.276000000    -1.348000000     6.438000000
C    -0.685000000    -0.113000000     6.628000000
H    -1.111000000    -0.918000000     7.221000000
C    -1.556000000     0.827000000     6.123000000
O    -2.873000000     0.892000000     6.529000000
C    -3.954000000     0.965000000     5.661000000
C    -4.137000000     0.054000000     4.636000000
H    -3.417000000    -0.721000000     4.385000000
C    -4.848000000     2.059000000     5.764000000
H    -4.692000000     2.841000000     6.503000000
C    -5.923000000     2.191000000     4.838000000
H    -6.661000000     2.988000000     4.862000000
C    -6.157000000     1.189000000     3.895000000
H    -7.032000000     1.352000000     3.271000000
C    -5.262000000     0.100000000     3.804000000
O    -5.595000000    -0.944000000     2.896000000
C    -5.290000000    -0.745000000     1.532000000
C    -5.724000000    -1.712000000     0.532000000
H    -6.214000000    -2.640000000     0.815000000
C    -5.371000000    -1.475000000    -0.774000000
O    -5.735000000    -2.399000000    -1.792000000
C    -5.501000000    -2.257000000    -3.171000000
C    -4.679000000    -3.232000000    -3.832000000
H    -4.023000000    -3.979000000    -3.392000000
C    -6.295000000    -1.394000000    -3.959000000
H    -7.012000000    -0.733000000    -3.478000000
C    -6.129000000    -1.313000000    -5.339000000
H    -6.782000000    -0.700000000    -5.955000000
C    -5.229000000    -2.182000000    -5.950000000
H    -5.071000000    -2.157000000    -7.025000000
C    -4.478000000    -3.100000000    -5.231000000
O    -3.403000000    -3.792000000    -5.810000000
C    -2.100000000    -3.601000000    -5.343000000
C    -1.156000000    -4.661000000    -5.253000000
H    -1.495000000    -5.651000000    -5.548000000
C     0.161000000    -4.465000000    -4.793000000
O     1.037000000    -5.537000000    -4.463000000
C     2.175000000    -5.373000000    -3.715000000
C     2.082000000    -5.207000000    -2.326000000
H     1.068000000    -5.336000000    -1.958000000
C     3.369000000    -5.376000000    -4.333000000
H     3.573000000    -5.566000000    -5.384000000
C     4.573000000    -5.124000000    -3.616000000
H     5.474000000    -5.029000000    -4.216000000
C     4.446000000    -4.934000000    -2.240000000
H     5.266000000    -4.571000000    -1.626000000
C     3.238000000    -5.048000000    -1.594000000
O     3.025000000    -4.958000000    -0.231000000
C     3.518000000    -3.934000000     0.526000000
C     4.010000000    -4.179000000     1.834000000
H     3.987000000    -5.174000000     2.270000000
C     4.527000000    -3.120000000     2.582000000
O     5.062000000    -3.187000000     3.893000000
C     4.545000000    -2.485000000     4.961000000
C     5.417000000    -2.121000000     5.990000000
H     6.474000000    -2.358000000     5.901000000
C     4.916000000    -1.371000000     7.049000000
H     5.584000000    -1.096000000     7.861000000
C     3.515000000    -1.073000000     7.213000000
H     3.250000000    -0.440000000     8.056000000
C     2.605000000    -1.587000000     6.233000000
C     3.116000000    -2.265000000     5.124000000
H     2.442000000    -2.672000000     4.375000000
C     0.481000000    -2.918000000     1.677000000
H     0.975000000    -3.819000000     1.321000000
C     0.473000000    -1.733000000     0.911000000
H     1.023000000    -1.628000000    -0.021000000
C    -0.158000000    -0.548000000     1.278000000
H    -0.072000000     0.319000000     0.701000000
C    -0.914000000    -0.559000000     2.431000000
H    -1.425000000     0.342000000     2.759000000
C    -0.812000000    -1.718000000     3.234000000
H    -1.292000000    -1.748000000     4.208000000
C    -0.023000000    -2.831000000     2.946000000
C    -0.111000000    -4.111000000     3.704000000
O    -1.057000000    -4.269000000     4.538000000
O     0.622000000    -5.014000000     3.396000000
O     2.289000000    -7.617000000     3.387000000
H     2.336000000    -6.668000000     3.509000000
H     3.003000000    -7.962000000     3.924000000
O    -3.232000000    -3.827000000     3.288000000
H    -3.919000000    -3.606000000     3.917000000
H    -2.462000000    -4.006000000     3.827000000
O    -1.978000000    -7.166000000     7.443000000
H    -1.443000000    -6.876000000     6.704000000
H    -2.043000000    -8.114000000     7.335000000
O     0.699000000    -3.585000000     8.479000000
H    -0.100000000    -3.460000000     7.968000000
H     1.105000000    -2.718000000     8.505000000
O    -4.813000000    -2.331000000     6.413000000
H    -4.856000000    -3.156000000     5.929000000
H    -4.701000000    -2.595000000     7.326000000
O     3.304000000    -4.931000000     7.313000000
H     3.723000000    -4.508000000     8.063000000
H     2.369000000    -4.769000000     7.439000000
O     5.696000000    -5.929000000     6.020000000
H     4.760000000    -5.756000000     6.116000000
H     6.061000000    -5.768000000     6.890000000
O    -5.006000000    -4.779000000     5.221000000
H    -4.776000000    -5.617000000     5.623000000
H    -5.731000000    -4.988000000     4.631000000
O    -2.936000000    -6.638000000     3.266000000
H    -2.074000000    -6.521000000     3.665000000
H    -3.247000000    -5.748000000     3.101000000
O    -1.655000000    -3.597000000     7.012000000
H    -1.356000000    -3.662000000     6.105000000
H    -2.605000000    -3.696000000     6.959000000
O    -0.301000000    -6.685000000     5.466000000
H    -0.302000000    -5.754000000     5.241000000
H     0.258000000    -7.091000000     4.803000000
O     2.867000000    -5.485000000     4.878000000
H     2.144000000    -4.949000000     4.555000000
H     3.075000000    -5.115000000     5.736000000
O    -2.484000000    -4.054000000     0.615000000
H    -2.918000000    -3.919000000     1.457000000
H    -1.702000000    -3.504000000     0.657000000
O    -0.006000000    -8.718000000     1.003000000
H     0.750000000    -8.159000000     1.186000000
H    -0.722000000    -8.105000000     0.834000000
O    -4.364000000    -4.020000000     8.363000000
H    -4.575000000    -3.842000000     9.279000000
H    -3.442000000    -4.279000000     8.375000000
O     3.242000000    -8.893000000     1.258000000
H     2.878000000    -8.261000000     1.878000000
H     4.189000000    -8.837000000     1.387000000
O    -3.661000000    -6.234000000    -0.902000000
H    -3.151000000    -5.607000000    -0.389000000
H    -3.030000000    -6.910000000    -1.149000000
O    -3.600000000    -9.348000000     2.008000000
H    -4.541000000    -9.330000000     2.182000000
H    -3.286000000    -8.491000000     2.294000000
O    -0.593000000    -5.946000000     0.855000000
H     0.052000000    -5.728000000     1.527000000
H    -1.327000000    -5.356000000     1.027000000
