215
-1424.68494
C    -5.370000000     0.073000000    -0.872000000
H    -4.876000000    -0.007000000    -1.837000000
C    -4.986000000     1.195000000    -0.033000000
C    -5.477000000     1.294000000     1.218000000
H    -5.329000000     2.160000000     1.858000000
C    -3.917000000     2.242000000    -0.444000000
O    -4.135000000     2.663000000    -1.882000000
H    -2.953000000     1.722000000    -0.341000000
O    -3.930000000     3.458000000     0.290000000
C    -2.677000000     3.843000000     0.570000000
C    -2.139000000     3.558000000     1.825000000
H    -2.794000000     3.064000000     2.538000000
C    -0.864000000     4.035000000     2.144000000
O    -0.321000000     3.596000000     3.329000000
C    -0.053000000     4.718000000     1.221000000
C     1.344000000     5.084000000     1.523000000
H     1.584000000     6.000000000     0.979000000
C     2.358000000     3.990000000     1.257000000
C     2.961000000     3.924000000    -0.014000000
H     2.698000000     4.618000000    -0.809000000
H     1.469000000     5.389000000     2.564000000
C    -0.654000000     5.044000000     0.000000000
H     0.090000000     5.486000000    -0.658000000
C    -1.921000000     4.563000000    -0.348000000
C    -2.401000000     4.842000000    -1.792000000
H    -1.813000000     5.706000000    -2.108000000
H    -3.487000000     4.920000000    -1.880000000
C    -2.098000000     3.581000000    -2.572000000
C    -0.917000000     3.486000000    -3.351000000
H    -0.233000000     4.330000000    -3.307000000
C    -3.046000000     2.572000000    -2.643000000
C    -2.759000000     1.415000000    -3.328000000
H    -3.374000000     0.519000000    -3.330000000
C    -1.534000000     1.304000000    -4.063000000
O    -1.197000000     0.059000000    -4.576000000
C    -0.147000000    -0.857000000    -3.968000000
C    -0.496000000    -2.364000000    -3.819000000
C     0.562000000    -3.329000000    -3.759000000
H     1.582000000    -3.034000000    -3.991000000
C    -1.853000000    -2.678000000    -3.767000000
H    -2.646000000    -1.954000000    -3.939000000
O     1.103000000    -0.661000000    -4.652000000
H    -0.131000000    -0.562000000    -2.908000000
C    -0.597000000     2.353000000    -4.092000000
C     0.725000000     2.201000000    -4.879000000
H     1.078000000     3.193000000    -5.169000000
H     0.509000000     1.713000000    -5.832000000
C     1.886000000     1.580000000    -4.157000000
C     2.733000000     2.428000000    -3.452000000
H     2.569000000     3.500000000    -3.528000000
C     2.043000000     0.193000000    -4.005000000
C     3.011000000    -0.334000000    -3.235000000
H     3.163000000    -1.409000000    -3.167000000
C     3.924000000     0.531000000    -2.618000000
O     4.824000000    -0.058000000    -1.746000000
C     4.554000000    -0.151000000    -0.327000000
C     4.878000000    -1.456000000     0.336000000
C     4.487000000    -2.660000000    -0.250000000
H     4.102000000    -2.627000000    -1.266000000
C     5.302000000    -1.481000000     1.717000000
H     5.514000000    -0.597000000     2.313000000
O     5.084000000     1.018000000     0.414000000
H     3.458000000    -0.114000000    -0.240000000
C     3.788000000     1.929000000    -2.670000000
C     4.545000000     2.811000000    -1.740000000
H     4.681000000     3.835000000    -2.092000000
H     5.579000000     2.460000000    -1.765000000
C     3.860000000     2.875000000    -0.348000000
C     4.265000000     2.033000000     0.663000000
C     3.718000000     2.073000000     1.896000000
H     4.108000000     1.307000000     2.562000000
C     2.734000000     2.993000000     2.208000000
O     2.008000000     2.737000000     3.327000000
C     0.618000000     2.428000000     3.131000000
H     0.444000000     2.033000000     2.120000000
C     0.186000000     1.345000000     4.158000000
C    -1.084000000     0.776000000     4.200000000
H    -1.818000000     1.258000000     3.559000000
C     1.200000000     0.675000000     4.899000000
H     2.189000000     1.120000000     4.967000000
C     0.912000000    -0.492000000     5.617000000
O     1.898000000    -1.234000000     6.197000000
C    -0.397000000    -0.995000000     5.645000000
H    -0.622000000    -2.000000000     5.992000000
C    -1.403000000    -0.367000000     4.927000000
O    -2.701000000    -0.905000000     4.893000000
C    -3.894000000    -0.177000000     5.002000000
C    -4.746000000    -0.097000000     3.845000000
H    -4.528000000    -0.731000000     2.989000000
C    -4.162000000     0.559000000     6.121000000
H    -3.566000000     0.508000000     7.028000000
C    -5.318000000     1.311000000     6.138000000
H    -5.512000000     1.894000000     7.034000000
C    -6.226000000     1.386000000     5.060000000
H    -7.162000000     1.940000000     5.070000000
C    -5.967000000     0.573000000     3.968000000
O    -6.857000000     0.499000000     2.888000000
C    -6.434000000     0.350000000     1.599000000
C    -6.875000000    -0.688000000     0.808000000
H    -7.579000000    -1.420000000     1.195000000
C    -6.263000000    -0.885000000    -0.445000000
O    -6.480000000    -1.965000000    -1.220000000
C    -6.003000000    -2.225000000    -2.547000000
C    -5.096000000    -3.309000000    -2.695000000
H    -4.718000000    -3.753000000    -1.777000000
C    -6.376000000    -1.487000000    -3.640000000
H    -7.110000000    -0.723000000    -3.396000000
C    -5.870000000    -1.848000000    -4.908000000
H    -6.198000000    -1.305000000    -5.791000000
C    -4.879000000    -2.818000000    -5.041000000
H    -4.365000000    -3.036000000    -5.974000000
C    -4.535000000    -3.560000000    -3.915000000
O    -3.468000000    -4.466000000    -4.065000000
C    -2.203000000    -4.036000000    -3.897000000
C    -1.152000000    -4.974000000    -3.868000000
H    -1.386000000    -6.004000000    -4.124000000
C     0.207000000    -4.624000000    -3.709000000
O     1.192000000    -5.639000000    -3.803000000
C     2.506000000    -5.385000000    -3.320000000
C     2.711000000    -5.278000000    -1.923000000
H     1.800000000    -5.215000000    -1.335000000
C     3.618000000    -5.329000000    -4.153000000
H     3.423000000    -5.421000000    -5.219000000
C     4.807000000    -5.327000000    -3.614000000
H     5.593000000    -5.321000000    -4.365000000
C     4.996000000    -5.209000000    -2.246000000
H     6.039000000    -5.081000000    -1.968000000
C     3.954000000    -5.239000000    -1.379000000
O     4.173000000    -5.037000000    -0.034000000
C     4.517000000    -3.832000000     0.439000000
C     4.955000000    -3.831000000     1.754000000
H     4.781000000    -4.755000000     2.299000000
C     5.492000000    -2.699000000     2.308000000
O     5.745000000    -2.672000000     3.610000000
C     5.124000000    -1.933000000     4.544000000
C     5.911000000    -1.055000000     5.228000000
H     6.986000000    -0.950000000     5.106000000
C     5.368000000    -0.150000000     6.080000000
H     6.052000000     0.535000000     6.575000000
C     3.996000000    -0.191000000     6.384000000
H     3.532000000     0.569000000     7.007000000
C     3.215000000    -1.161000000     5.738000000
C     3.798000000    -2.035000000     4.810000000
H     3.233000000    -2.790000000     4.268000000
C     1.156000000    -1.736000000     2.105000000
H     2.186000000    -1.995000000     2.337000000
C     0.894000000    -0.690000000     1.236000000
H     1.792000000    -0.274000000     0.787000000
C    -0.381000000    -0.295000000     0.861000000
H    -0.567000000     0.497000000     0.233000000
C    -1.494000000    -0.947000000     1.397000000
H    -2.510000000    -0.666000000     1.134000000
C    -1.298000000    -2.038000000     2.281000000
H    -2.125000000    -2.597000000     2.712000000
C     0.050000000    -2.429000000     2.638000000
C     0.252000000    -3.493000000     3.682000000
O    -0.658000000    -3.971000000     4.293000000
O     1.329000000    -4.039000000     3.831000000
O    -2.349000000    -5.373000000     2.891000000
H    -3.009000000    -4.689000000     3.005000000
H    -1.581000000    -5.044000000     3.358000000
O    -2.023000000    -8.774000000     5.517000000
H    -1.543000000    -7.948000000     5.471000000
H    -2.866000000    -8.540000000     5.905000000
O     1.123000000    -4.206000000     6.703000000
H     1.067000000    -3.902000000     5.797000000
H     0.224000000    -4.158000000     7.028000000
O    -1.754000000    -2.618000000     8.624000000
H    -1.831000000    -3.352000000     9.235000000
H    -2.259000000    -2.890000000     7.858000000
O    -0.986000000    -7.636000000     0.325000000
H    -0.715000000    -6.794000000     0.691000000
H    -1.605000000    -7.987000000     0.965000000
O     0.308000000    -8.111000000     7.853000000
H     0.185000000    -7.705000000     6.995000000
H    -0.230000000    -7.585000000     8.446000000
O    -3.866000000    -6.581000000     6.223000000
H    -4.732000000    -6.265000000     5.962000000
H    -3.298000000    -5.815000000     6.140000000
O    -4.535000000    -3.745000000     2.760000000
H    -4.514000000    -3.605000000     3.706000000
H    -5.357000000    -4.210000000     2.605000000
O     2.768000000    -6.369000000     7.863000000
H     2.323000000    -5.638000000     7.436000000
H     2.255000000    -7.139000000     7.619000000
O    -2.812000000    -8.204000000     2.340000000
H    -3.234000000    -7.362000000     2.514000000
H    -2.451000000    -8.470000000     3.186000000
O    -2.603000000    -4.063000000     6.302000000
H    -1.963000000    -4.092000000     5.592000000
H    -3.298000000    -3.492000000     5.976000000
O     0.137000000    -6.674000000     5.563000000
H    -0.087000000    -5.948000000     4.981000000
H     1.073000000    -6.816000000     5.420000000
O     2.204000000    -2.049000000     8.874000000
H     2.067000000    -2.181000000     7.936000000
H     2.959000000    -1.463000000     8.926000000
O     2.819000000    -6.195000000     4.455000000
H     2.438000000    -5.319000000     4.390000000
H     2.983000000    -6.452000000     3.548000000
O    -0.752000000    -4.432000000    -0.627000000
H    -0.476000000    -3.550000000    -0.376000000
H    -0.268000000    -5.011000000    -0.039000000
O     2.877000000    -7.703000000     2.080000000
H     2.891000000    -8.567000000     2.491000000
H     3.787000000    -7.540000000     1.833000000
O    -3.005000000    -5.674000000    -0.047000000
H    -2.808000000    -5.942000000     0.850000000
H    -2.158000000    -5.418000000    -0.413000000
O    -1.139000000    -5.840000000     8.605000000
H    -1.644000000    -5.331000000     7.972000000
H    -0.680000000    -5.184000000     9.130000000
O     0.944000000    -5.647000000     1.398000000
H     1.504000000    -6.417000000     1.492000000
H     0.935000000    -5.249000000     2.268000000
