215
-1436.82340
C    -5.253000000     0.442000000    -0.415000000
H    -5.143000000     0.572000000    -1.488000000
C    -4.677000000     1.313000000     0.496000000
C    -4.915000000     1.082000000     1.863000000
H    -4.564000000     1.826000000     2.574000000
C    -3.797000000     2.430000000     0.101000000
O    -4.034000000     2.920000000    -1.265000000
H    -2.798000000     1.969000000     0.097000000
O    -3.700000000     3.551000000     1.045000000
C    -2.443000000     3.988000000     1.408000000
C    -1.850000000     3.429000000     2.519000000
H    -2.532000000     2.914000000     3.191000000
C    -0.539000000     3.686000000     2.831000000
O     0.039000000     2.947000000     3.839000000
C     0.199000000     4.455000000     1.965000000
C     1.728000000     4.616000000     2.210000000
H     2.083000000     5.559000000     1.787000000
C     2.633000000     3.460000000     1.782000000
C     3.200000000     3.598000000     0.483000000
H     2.885000000     4.422000000    -0.153000000
H     1.804000000     4.679000000     3.297000000
C    -0.313000000     4.952000000     0.778000000
H     0.317000000     5.464000000     0.056000000
C    -1.664000000     4.691000000     0.518000000
C    -2.189000000     5.148000000    -0.851000000
H    -1.607000000     6.052000000    -1.038000000
H    -3.197000000     5.494000000    -0.613000000
C    -2.050000000     4.067000000    -1.983000000
C    -0.872000000     4.182000000    -2.793000000
H    -0.190000000     5.013000000    -2.632000000
C    -2.922000000     2.966000000    -2.158000000
C    -2.710000000     1.979000000    -3.038000000
H    -3.468000000     1.204000000    -3.118000000
C    -1.607000000     2.086000000    -3.828000000
O    -1.259000000     1.013000000    -4.626000000
C    -0.394000000     0.054000000    -4.134000000
C    -0.825000000    -1.368000000    -4.482000000
C     0.163000000    -2.371000000    -4.749000000
H     1.222000000    -2.144000000    -4.656000000
C    -2.120000000    -1.820000000    -4.195000000
H    -2.913000000    -1.139000000    -3.894000000
O     0.859000000     0.295000000    -4.756000000
H    -0.249000000     0.139000000    -3.047000000
C    -0.652000000     3.161000000    -3.726000000
C     0.637000000     3.148000000    -4.493000000
H     1.119000000     4.126000000    -4.559000000
H     0.378000000     2.673000000    -5.442000000
C     1.747000000     2.334000000    -3.858000000
C     2.707000000     2.928000000    -3.054000000
H     2.618000000     3.992000000    -2.851000000
C     1.809000000     0.932000000    -4.105000000
C     2.840000000     0.123000000    -3.510000000
H     2.738000000    -0.955000000    -3.598000000
C     3.774000000     0.737000000    -2.712000000
O     4.595000000    -0.098000000    -2.012000000
C     4.322000000    -0.492000000    -0.659000000
C     4.597000000    -1.945000000    -0.308000000
C     4.416000000    -2.878000000    -1.308000000
H     3.962000000    -2.565000000    -2.244000000
C     4.938000000    -2.355000000     0.969000000
H     5.130000000    -1.609000000     1.735000000
O     5.019000000     0.394000000     0.289000000
H     3.235000000    -0.436000000    -0.499000000
C     3.763000000     2.144000000    -2.500000000
C     4.608000000     2.778000000    -1.405000000
H     4.751000000     3.856000000    -1.503000000
H     5.628000000     2.390000000    -1.360000000
C     4.049000000     2.556000000    -0.026000000
C     4.365000000     1.421000000     0.773000000
C     3.756000000     1.298000000     1.973000000
H     3.807000000     0.346000000     2.494000000
C     2.916000000     2.245000000     2.496000000
O     2.177000000     1.973000000     3.612000000
C     0.741000000     1.728000000     3.426000000
H     0.533000000     1.376000000     2.405000000
C     0.435000000     0.579000000     4.432000000
C    -0.750000000     0.620000000     5.217000000
H    -1.332000000     1.534000000     5.133000000
C     1.157000000    -0.570000000     4.474000000
H     1.988000000    -0.711000000     3.787000000
C     0.901000000    -1.561000000     5.410000000
O     1.710000000    -2.641000000     5.558000000
C    -0.196000000    -1.446000000     6.263000000
H    -0.497000000    -2.177000000     7.009000000
C    -1.085000000    -0.392000000     6.113000000
O    -2.321000000    -0.427000000     6.774000000
C    -3.434000000     0.176000000     6.270000000
C    -4.189000000    -0.366000000     5.206000000
H    -3.869000000    -1.345000000     4.858000000
C    -3.676000000     1.524000000     6.686000000
H    -3.062000000     2.092000000     7.380000000
C    -4.811000000     2.188000000     6.108000000
H    -4.997000000     3.193000000     6.479000000
C    -5.558000000     1.636000000     5.119000000
H    -6.417000000     2.133000000     4.676000000
C    -5.199000000     0.365000000     4.645000000
O    -5.926000000    -0.266000000     3.660000000
C    -5.776000000     0.038000000     2.343000000
C    -6.292000000    -0.837000000     1.383000000
H    -6.848000000    -1.725000000     1.672000000
C    -5.999000000    -0.681000000    -0.017000000
O    -6.592000000    -1.399000000    -1.013000000
C    -6.176000000    -1.586000000    -2.274000000
C    -5.188000000    -2.542000000    -2.564000000
H    -4.865000000    -3.117000000    -1.700000000
C    -6.809000000    -0.962000000    -3.339000000
H    -7.556000000    -0.215000000    -3.085000000
C    -6.395000000    -1.156000000    -4.675000000
H    -6.943000000    -0.674000000    -5.481000000
C    -5.329000000    -2.027000000    -4.957000000
H    -5.021000000    -2.118000000    -5.996000000
C    -4.812000000    -2.786000000    -3.939000000
O    -3.766000000    -3.607000000    -4.141000000
C    -2.459000000    -3.183000000    -4.319000000
C    -1.493000000    -4.121000000    -4.599000000
H    -1.841000000    -5.145000000    -4.709000000
C    -0.136000000    -3.757000000    -4.846000000
O     0.734000000    -4.747000000    -5.292000000
C     2.059000000    -4.632000000    -4.914000000
C     2.449000000    -4.927000000    -3.602000000
H     1.821000000    -5.315000000    -2.804000000
C     2.968000000    -4.341000000    -5.899000000
H     2.611000000    -4.135000000    -6.905000000
C     4.307000000    -4.283000000    -5.633000000
H     5.041000000    -3.968000000    -6.370000000
C     4.718000000    -4.460000000    -4.354000000
H     5.792000000    -4.382000000    -4.203000000
C     3.820000000    -4.836000000    -3.299000000
O     4.274000000    -5.155000000    -1.996000000
C     4.522000000    -4.238000000    -0.985000000
C     4.792000000    -4.623000000     0.309000000
H     4.777000000    -5.688000000     0.529000000
C     5.049000000    -3.725000000     1.335000000
O     5.257000000    -4.147000000     2.625000000
C     4.847000000    -3.460000000     3.817000000
C     5.615000000    -3.456000000     5.000000000
H     6.629000000    -3.788000000     4.790000000
C     5.202000000    -2.940000000     6.266000000
H     5.855000000    -2.999000000     7.134000000
C     3.922000000    -2.502000000     6.346000000
H     3.545000000    -2.212000000     7.323000000
C     3.043000000    -2.700000000     5.310000000
C     3.517000000    -3.013000000     3.997000000
H     2.845000000    -2.974000000     3.144000000
C     0.543000000    -2.891000000     0.439000000
H     1.107000000    -3.709000000    -0.002000000
C     0.412000000    -1.712000000    -0.278000000
H     1.015000000    -1.571000000    -1.172000000
C    -0.353000000    -0.692000000     0.151000000
H    -0.486000000     0.219000000    -0.445000000
C    -1.073000000    -0.826000000     1.270000000
H    -1.658000000    -0.021000000     1.708000000
C    -1.006000000    -1.991000000     2.016000000
H    -1.599000000    -2.016000000     2.927000000
C    -0.240000000    -3.104000000     1.559000000
C    -0.208000000    -4.428000000     2.314000000
O    -1.215000000    -4.589000000     3.066000000
O     0.568000000    -5.333000000     2.092000000
O    -2.423000000    -5.225000000    -1.150000000
H    -2.387000000    -4.303000000    -1.402000000
H    -2.869000000    -5.226000000    -0.304000000
O     2.993000000    -8.106000000     0.910000000
H     3.861000000    -8.314000000     0.564000000
H     2.416000000    -8.761000000     0.517000000
O    -0.159000000    -4.632000000     5.530000000
H    -0.570000000    -4.518000000     4.673000000
H     0.723000000    -4.274000000     5.422000000
O    -0.513000000    -6.849000000    -2.524000000
H     0.253000000    -6.978000000    -1.966000000
H    -0.997000000    -6.137000000    -2.106000000
O    -2.214000000   -10.951000000     2.231000000
H    -2.579000000   -10.079000000     2.382000000
H    -2.849000000   -11.380000000     1.657000000
O    -3.672000000    -3.827000000     7.160000000
H    -3.567000000    -3.916000000     6.213000000
H    -2.891000000    -4.240000000     7.528000000
O    -2.508000000    -6.717000000     5.776000000
H    -2.151000000    -7.162000000     6.544000000
H    -1.814000000    -6.780000000     5.119000000
O     0.412000000    -7.965000000     5.227000000
H     1.005000000    -7.676000000     5.921000000
H     0.775000000    -7.585000000     4.428000000
O    -3.101000000    -5.435000000     1.328000000
H    -2.800000000    -6.312000000     1.091000000
H    -2.512000000    -5.161000000     2.031000000
O     4.115000000    -7.508000000     5.561000000
H     3.635000000    -7.298000000     4.760000000
H     3.435000000    -7.610000000     6.227000000
O    -6.268000000    -4.159000000     4.239000000
H    -5.335000000    -4.059000000     4.427000000
H    -6.394000000    -5.104000000     4.149000000
O    -5.719000000    -5.794000000     1.501000000
H    -5.762000000    -6.750000000     1.502000000
H    -4.786000000    -5.596000000     1.424000000
O    -3.590000000    -8.616000000     2.854000000
H    -4.274000000    -8.437000000     2.208000000
H    -2.822000000    -8.148000000     2.524000000
O    -3.440000000    -4.394000000     4.449000000
H    -3.201000000    -5.078000000     5.074000000
H    -2.702000000    -4.357000000     3.841000000
O    -1.232000000    -7.523000000     1.826000000
H    -0.622000000    -6.805000000     1.997000000
H    -0.729000000    -8.315000000     2.015000000
O     2.268000000    -7.103000000     3.406000000
H     1.785000000    -6.296000000     3.230000000
H     2.401000000    -7.495000000     2.543000000
O    -2.756000000    -2.406000000    -0.630000000
H    -1.978000000    -1.946000000    -0.316000000
H    -2.922000000    -3.076000000     0.033000000
O    -1.177000000    -4.416000000     8.081000000
H    -1.086000000    -3.473000000     8.223000000
H    -0.996000000    -4.536000000     7.149000000
O     1.551000000    -6.328000000    -0.507000000
H     2.288000000    -6.794000000    -0.112000000
H     1.043000000    -6.007000000     0.238000000
