215
-1433.84951
C     3.819000000     2.258000000    -3.056000000
H     3.813000000     1.294000000    -3.558000000
C     3.964000000     2.291000000    -1.713000000
C     4.035000000     3.500000000    -1.045000000
H     4.287000000     3.593000000     0.009000000
C     4.070000000     1.006000000    -0.900000000
O     4.737000000    -0.113000000    -1.582000000
H     3.019000000     0.770000000    -0.680000000
O     4.758000000     1.233000000     0.377000000
C     4.232000000     0.585000000     1.458000000
C     3.493000000     1.356000000     2.327000000
H     3.376000000     2.424000000     2.159000000
C     2.815000000     0.773000000     3.355000000
O     1.919000000     1.497000000     4.027000000
C     2.998000000    -0.588000000     3.616000000
C     2.210000000    -1.301000000     4.786000000
H     2.646000000    -2.259000000     5.075000000
C     0.757000000    -1.637000000     4.445000000
C     0.502000000    -2.929000000     3.951000000
H     1.348000000    -3.552000000     3.672000000
H     2.220000000    -0.712000000     5.705000000
C     3.771000000    -1.349000000     2.830000000
H     3.792000000    -2.429000000     2.956000000
C     4.419000000    -0.761000000     1.737000000
C     5.207000000    -1.677000000     0.769000000
H     5.704000000    -2.524000000     1.246000000
H     6.073000000    -1.199000000     0.304000000
C     4.397000000    -2.186000000    -0.375000000
C     3.630000000    -3.343000000    -0.253000000
H     3.679000000    -3.931000000     0.660000000
C     4.269000000    -1.421000000    -1.465000000
C     3.376000000    -1.783000000    -2.434000000
H     3.243000000    -1.140000000    -3.300000000
C     2.638000000    -2.958000000    -2.396000000
O     1.749000000    -3.241000000    -3.465000000
C     0.388000000    -2.985000000    -3.088000000
C    -0.428000000    -2.260000000    -4.155000000
C    -1.758000000    -2.495000000    -4.330000000
H    -2.255000000    -3.273000000    -3.756000000
C     0.231000000    -1.323000000    -4.936000000
H     1.291000000    -1.145000000    -4.772000000
O    -0.217000000    -4.224000000    -2.684000000
H     0.317000000    -2.332000000    -2.205000000
C     2.734000000    -3.707000000    -1.224000000
C     1.947000000    -4.988000000    -1.050000000
H     2.486000000    -5.732000000    -0.459000000
H     1.777000000    -5.504000000    -1.997000000
C     0.570000000    -4.806000000    -0.473000000
C     0.349000000    -4.852000000     0.932000000
H     1.190000000    -5.034000000     1.595000000
C    -0.461000000    -4.480000000    -1.329000000
C    -1.716000000    -4.251000000    -0.800000000
H    -2.555000000    -4.068000000    -1.467000000
C    -1.938000000    -4.221000000     0.591000000
O    -3.161000000    -3.806000000     1.055000000
C    -3.196000000    -2.464000000     1.651000000
C    -4.463000000    -1.629000000     1.273000000
C    -5.233000000    -2.015000000     0.178000000
H    -5.118000000    -3.005000000    -0.257000000
C    -4.700000000    -0.398000000     1.916000000
H    -4.026000000    -0.101000000     2.716000000
O    -3.132000000    -2.530000000     3.129000000
H    -2.283000000    -1.935000000     1.340000000
C    -0.892000000    -4.596000000     1.467000000
C    -1.029000000    -4.629000000     2.999000000
H    -0.283000000    -5.268000000     3.475000000
H    -1.998000000    -5.005000000     3.334000000
C    -0.847000000    -3.261000000     3.620000000
C    -1.924000000    -2.358000000     3.773000000
C    -1.631000000    -1.154000000     4.303000000
H    -2.362000000    -0.362000000     4.451000000
C    -0.301000000    -0.752000000     4.564000000
O    -0.048000000     0.590000000     4.879000000
C     0.510000000     1.397000000     3.820000000
H     0.322000000     0.869000000     2.874000000
C    -0.151000000     2.853000000     3.731000000
C     0.525000000     3.865000000     3.036000000
H     1.474000000     3.712000000     2.530000000
C    -1.439000000     3.036000000     4.260000000
H    -1.912000000     2.189000000     4.751000000
C    -2.049000000     4.289000000     4.197000000
O    -3.305000000     4.556000000     4.675000000
C    -1.324000000     5.345000000     3.660000000
H    -1.729000000     6.352000000     3.697000000
C    -0.086000000     5.139000000     3.042000000
O     0.642000000     6.189000000     2.436000000
C     1.929000000     6.216000000     1.943000000
C     2.292000000     6.120000000     0.599000000
H     1.529000000     6.040000000    -0.171000000
C     2.919000000     6.299000000     2.899000000
H     2.708000000     6.497000000     3.947000000
C     4.244000000     6.413000000     2.528000000
H     4.945000000     6.477000000     3.357000000
C     4.653000000     6.260000000     1.220000000
H     5.703000000     6.275000000     0.939000000
C     3.654000000     6.069000000     0.231000000
O     4.026000000     5.933000000    -1.071000000
C     3.902000000     4.707000000    -1.693000000
C     3.865000000     4.709000000    -3.067000000
H     3.913000000     5.595000000    -3.695000000
C     3.844000000     3.458000000    -3.760000000
O     3.654000000     3.471000000    -5.096000000
C     3.220000000     2.329000000    -5.779000000
C     1.867000000     1.912000000    -6.005000000
H     1.042000000     2.530000000    -5.660000000
C     4.192000000     1.550000000    -6.444000000
H     5.253000000     1.762000000    -6.337000000
C     3.889000000     0.339000000    -7.077000000
H     4.692000000    -0.313000000    -7.410000000
C     2.569000000    -0.071000000    -7.229000000
H     2.353000000    -1.014000000    -7.726000000
C     1.513000000     0.684000000    -6.605000000
O     0.191000000     0.401000000    -6.743000000
C    -0.413000000    -0.608000000    -5.973000000
C    -1.797000000    -0.771000000    -6.103000000
H    -2.370000000    -0.273000000    -6.881000000
C    -2.464000000    -1.704000000    -5.319000000
O    -3.829000000    -1.810000000    -5.373000000
C    -4.674000000    -2.280000000    -4.395000000
C    -5.200000000    -1.587000000    -3.255000000
H    -4.851000000    -0.559000000    -3.190000000
C    -5.038000000    -3.603000000    -4.622000000
H    -4.563000000    -4.120000000    -5.452000000
C    -6.040000000    -4.247000000    -3.968000000
H    -6.157000000    -5.320000000    -4.093000000
C    -6.617000000    -3.504000000    -2.882000000
H    -7.198000000    -4.040000000    -2.136000000
C    -6.169000000    -2.222000000    -2.523000000
O    -6.814000000    -1.588000000    -1.502000000
C    -6.257000000    -1.271000000    -0.294000000
C    -6.398000000    -0.032000000     0.327000000
H    -7.138000000     0.704000000     0.025000000
C    -5.737000000     0.354000000     1.508000000
O    -6.064000000     1.540000000     2.187000000
C    -5.508000000     1.975000000     3.354000000
C    -5.817000000     1.390000000     4.524000000
H    -6.543000000     0.585000000     4.610000000
C    -5.201000000     1.684000000     5.710000000
H    -5.406000000     1.174000000     6.648000000
C    -4.435000000     2.817000000     5.712000000
H    -3.956000000     3.226000000     6.597000000
C    -4.299000000     3.597000000     4.628000000
C    -4.760000000     3.169000000     3.339000000
H    -4.607000000     3.725000000     2.417000000
C    -2.339000000     0.605000000    -1.395000000
H    -3.325000000     0.615000000    -1.853000000
C    -2.038000000    -0.649000000    -0.935000000
H    -2.573000000    -1.545000000    -1.240000000
C    -0.842000000    -0.803000000    -0.186000000
H    -0.549000000    -1.790000000     0.169000000
C    -0.078000000     0.314000000     0.138000000
H     0.780000000     0.196000000     0.794000000
C    -0.393000000     1.598000000    -0.315000000
H     0.240000000     2.436000000    -0.033000000
C    -1.537000000     1.765000000    -1.141000000
C    -1.994000000     3.167000000    -1.585000000
O    -1.251000000     4.114000000    -1.663000000
O    -3.098000000     3.324000000    -2.067000000
O    -4.067000000     7.892000000     2.117000000
H    -4.749000000     7.615000000     2.729000000
H    -4.285000000     7.448000000     1.298000000
O     0.363000000     7.239000000    -3.506000000
H     0.952000000     7.532000000    -2.811000000
H    -0.428000000     6.955000000    -3.047000000
O    -2.355000000     2.682000000    -7.681000000
H    -1.993000000     3.034000000    -6.868000000
H    -3.074000000     3.275000000    -7.899000000
O    -0.524000000     8.691000000     1.154000000
H    -1.433000000     8.397000000     1.209000000
H    -0.008000000     7.913000000     1.367000000
O    -7.857000000     4.779000000     1.521000000
H    -7.429000000     5.082000000     2.322000000
H    -7.149000000     4.406000000     0.997000000
O    -1.824000000     6.694000000    -2.229000000
H    -1.559000000     5.817000000    -1.953000000
H    -2.715000000     6.582000000    -2.561000000
O    -6.511000000     2.556000000    -5.933000000
H    -7.217000000     2.947000000    -5.417000000
H    -5.771000000     2.507000000    -5.327000000
O    -7.191000000     3.074000000    -2.052000000
H    -7.779000000     3.536000000    -2.649000000
H    -7.698000000     2.319000000    -1.753000000
O    -5.016000000     6.674000000    -0.439000000
H    -5.113000000     5.722000000    -0.399000000
H    -4.637000000     6.840000000    -1.302000000
O     1.293000000     5.822000000    -5.554000000
H     1.648000000     4.962000000    -5.330000000
H     0.889000000     6.134000000    -4.744000000
O    -4.851000000     2.475000000    -3.754000000
H    -4.082000000     2.686000000    -3.223000000
H    -5.572000000     2.436000000    -3.126000000
O    -1.202000000     5.873000000    -7.388000000
H    -0.479000000     6.456000000    -7.619000000
H    -0.927000000     5.465000000    -6.567000000
O    -2.425000000     8.042000000    -5.907000000
H    -2.142000000     7.372000000    -6.529000000
H    -2.509000000     7.577000000    -5.075000000
O    -4.673000000     7.216000000    -3.009000000
H    -4.825000000     6.555000000    -3.685000000
H    -4.904000000     8.045000000    -3.429000000
O    -5.210000000     3.813000000    -0.481000000
H    -4.428000000     3.502000000    -0.937000000
H    -5.915000000     3.712000000    -1.120000000
O    -1.680000000     3.838000000    -5.446000000
H    -0.977000000     3.836000000    -4.797000000
H    -2.482000000     3.925000000    -4.931000000
O    -2.910000000     9.189000000    -1.630000000
H    -2.259000000     8.491000000    -1.705000000
H    -2.538000000     9.796000000    -0.991000000
O    -5.070000000     5.347000000    -4.772000000
H    -4.764000000     5.319000000    -5.679000000
H    -4.802000000     4.506000000    -4.403000000
O     0.537000000     3.676000000    -3.616000000
H     0.074000000     3.931000000    -2.818000000
H     0.939000000     2.834000000    -3.402000000
