215
-1456.92106
C    -4.661000000    -0.028000000    -0.651000000
H    -4.006000000     0.011000000    -1.518000000
C    -4.512000000     1.046000000     0.318000000
C    -4.893000000     0.829000000     1.628000000
H    -4.524000000     1.507000000     2.392000000
C    -3.573000000     2.183000000    -0.004000000
O    -3.895000000     2.628000000    -1.259000000
H    -2.572000000     1.731000000     0.035000000
O    -3.602000000     3.359000000     0.933000000
C    -2.382000000     3.797000000     1.271000000
C    -1.906000000     3.250000000     2.464000000
H    -2.379000000     2.389000000     2.930000000
C    -0.593000000     3.552000000     2.961000000
O    -0.126000000     3.002000000     4.096000000
C     0.238000000     4.419000000     2.224000000
C     1.657000000     4.813000000     2.610000000
H     1.955000000     5.808000000     2.271000000
C     2.633000000     3.718000000     2.197000000
C     3.334000000     3.926000000     1.045000000
H     3.133000000     4.821000000     0.461000000
H     1.773000000     4.895000000     3.693000000
C    -0.302000000     4.906000000     0.959000000
H     0.372000000     5.550000000     0.400000000
C    -1.570000000     4.652000000     0.508000000
C    -2.055000000     5.107000000    -0.797000000
H    -1.507000000     5.993000000    -1.122000000
H    -3.103000000     5.398000000    -0.698000000
C    -1.934000000     4.051000000    -1.939000000
C    -0.857000000     4.081000000    -2.845000000
H    -0.165000000     4.903000000    -2.679000000
C    -2.771000000     2.884000000    -2.044000000
C    -2.474000000     1.979000000    -3.052000000
H    -3.078000000     1.077000000    -3.101000000
C    -1.366000000     2.019000000    -3.885000000
O    -1.208000000     1.099000000    -4.886000000
C    -0.214000000     0.039000000    -4.476000000
C    -0.619000000    -1.324000000    -5.016000000
C     0.368000000    -2.324000000    -5.227000000
H     1.393000000    -2.062000000    -4.978000000
C    -1.972000000    -1.698000000    -5.049000000
H    -2.721000000    -0.911000000    -5.018000000
O     1.114000000     0.354000000    -4.862000000
H    -0.213000000     0.061000000    -3.376000000
C    -0.527000000     3.076000000    -3.792000000
C     0.749000000     3.193000000    -4.578000000
H     1.065000000     4.233000000    -4.480000000
H     0.676000000     2.947000000    -5.639000000
C     1.819000000     2.449000000    -3.823000000
C     2.611000000     3.064000000    -2.867000000
H     2.554000000     4.127000000    -2.648000000
C     1.976000000     1.074000000    -4.077000000
C     2.934000000     0.372000000    -3.393000000
H     3.044000000    -0.702000000    -3.517000000
C     3.698000000     0.962000000    -2.390000000
O     4.505000000     0.158000000    -1.671000000
C     3.981000000    -0.283000000    -0.415000000
C     4.078000000    -1.755000000    -0.168000000
C     3.965000000    -2.683000000    -1.179000000
H     3.834000000    -2.369000000    -2.211000000
C     4.181000000    -2.334000000     1.145000000
H     4.055000000    -1.626000000     1.961000000
O     4.766000000     0.479000000     0.589000000
H     2.944000000     0.086000000    -0.391000000
C     3.506000000     2.310000000    -2.047000000
C     4.461000000     2.993000000    -1.023000000
H     4.658000000     4.041000000    -1.256000000
H     5.390000000     2.445000000    -1.190000000
C     4.053000000     2.887000000     0.441000000
C     4.139000000     1.676000000     1.150000000
C     3.587000000     1.533000000     2.404000000
H     3.704000000     0.607000000     2.962000000
C     2.889000000     2.589000000     2.971000000
O     2.212000000     2.412000000     4.177000000
C     0.837000000     1.905000000     4.080000000
H     0.798000000     1.434000000     3.087000000
C     0.475000000     0.842000000     5.070000000
C    -0.842000000     0.622000000     5.416000000
H    -1.479000000     1.484000000     5.232000000
C     1.353000000    -0.211000000     5.322000000
H     2.397000000    -0.147000000     5.026000000
C     0.925000000    -1.335000000     6.044000000
O     1.837000000    -2.245000000     6.472000000
C    -0.378000000    -1.452000000     6.495000000
H    -0.682000000    -2.282000000     7.127000000
C    -1.277000000    -0.450000000     6.180000000
O    -2.483000000    -0.391000000     6.777000000
C    -3.623000000     0.153000000     6.116000000
C    -4.279000000    -0.492000000     5.038000000
H    -3.830000000    -1.394000000     4.631000000
C    -4.073000000     1.412000000     6.575000000
H    -3.567000000     1.955000000     7.369000000
C    -5.182000000     2.018000000     5.937000000
H    -5.467000000     2.999000000     6.308000000
C    -5.772000000     1.393000000     4.848000000
H    -6.575000000     1.823000000     4.255000000
C    -5.354000000     0.095000000     4.411000000
O    -5.988000000    -0.554000000     3.327000000
C    -5.607000000    -0.313000000     2.000000000
C    -5.893000000    -1.303000000     1.070000000
H    -6.454000000    -2.194000000     1.338000000
C    -5.384000000    -1.166000000    -0.283000000
O    -5.563000000    -2.190000000    -1.143000000
C    -5.587000000    -2.181000000    -2.478000000
C    -4.630000000    -2.904000000    -3.121000000
H    -3.902000000    -3.421000000    -2.502000000
C    -6.556000000    -1.460000000    -3.158000000
H    -7.320000000    -0.969000000    -2.561000000
C    -6.615000000    -1.456000000    -4.545000000
H    -7.456000000    -1.022000000    -5.080000000
C    -5.591000000    -2.121000000    -5.256000000
H    -5.584000000    -2.124000000    -6.343000000
C    -4.568000000    -2.834000000    -4.543000000
O    -3.649000000    -3.536000000    -5.252000000
C    -2.351000000    -3.020000000    -5.291000000
C    -1.406000000    -3.965000000    -5.587000000
H    -1.681000000    -4.966000000    -5.907000000
C    -0.032000000    -3.631000000    -5.462000000
O     0.884000000    -4.637000000    -5.537000000
C     2.193000000    -4.590000000    -5.130000000
C     2.427000000    -4.606000000    -3.737000000
H     1.651000000    -4.611000000    -2.976000000
C     3.211000000    -4.596000000    -6.067000000
H     2.953000000    -4.665000000    -7.121000000
C     4.459000000    -4.625000000    -5.572000000
H     5.384000000    -4.535000000    -6.135000000
C     4.730000000    -4.814000000    -4.212000000
H     5.747000000    -4.844000000    -3.829000000
C     3.714000000    -4.706000000    -3.283000000
O     4.052000000    -4.967000000    -1.912000000
C     4.031000000    -4.063000000    -0.914000000
C     4.132000000    -4.566000000     0.370000000
H     4.352000000    -5.629000000     0.416000000
C     4.123000000    -3.665000000     1.437000000
O     4.157000000    -4.130000000     2.733000000
C     4.182000000    -3.443000000     3.896000000
C     5.431000000    -3.038000000     4.450000000
H     6.330000000    -3.424000000     3.975000000
C     5.424000000    -2.479000000     5.715000000
H     6.325000000    -2.202000000     6.258000000
C     4.207000000    -2.244000000     6.359000000
H     4.181000000    -1.820000000     7.359000000
C     2.977000000    -2.403000000     5.732000000
C     2.985000000    -3.137000000     4.587000000
H     2.054000000    -3.438000000     4.113000000
C     0.351000000    -2.879000000     1.677000000
H     0.817000000    -3.834000000     1.450000000
C     0.662000000    -1.865000000     0.729000000
H     1.497000000    -2.044000000     0.057000000
C     0.097000000    -0.575000000     0.822000000
H     0.624000000     0.275000000     0.317000000
C    -0.937000000    -0.364000000     1.754000000
H    -1.308000000     0.655000000     1.826000000
C    -1.355000000    -1.385000000     2.657000000
H    -2.130000000    -1.165000000     3.386000000
C    -0.703000000    -2.656000000     2.611000000
C    -1.280000000    -3.686000000     3.575000000
O    -2.318000000    -3.455000000     4.134000000
O    -0.652000000    -4.735000000     3.699000000
O    -3.042000000    -4.712000000    -0.763000000
H    -2.318000000    -4.198000000    -1.121000000
H    -2.986000000    -4.578000000     0.183000000
O     2.309000000    -8.054000000     3.761000000
H     2.204000000    -8.582000000     4.552000000
H     1.587000000    -8.325000000     3.194000000
O    -1.414000000    -4.944000000     6.926000000
H    -1.766000000    -4.327000000     6.284000000
H    -0.573000000    -5.217000000     6.559000000
O    -0.102000000    -5.380000000    -0.968000000
H    -0.006000000    -5.597000000    -0.040000000
H    -0.358000000    -6.205000000    -1.381000000
O    -4.490000000    -2.915000000     8.668000000
H    -4.400000000    -2.956000000     7.716000000
H    -3.842000000    -3.537000000     8.997000000
O    -3.942000000    -5.920000000     6.182000000
H    -3.113000000    -5.949000000     6.659000000
H    -3.712000000    -6.163000000     5.285000000
O    -0.968000000    -8.492000000     5.776000000
H    -0.721000000    -8.387000000     6.695000000
H    -0.227000000    -8.950000000     5.379000000
O    -3.663000000    -3.705000000     1.806000000
H    -3.391000000    -3.762000000     2.722000000
H    -3.549000000    -2.782000000     1.580000000
O     2.073000000    -6.424000000     7.652000000
H     1.668000000    -6.167000000     6.824000000
H     1.530000000    -7.145000000     7.971000000
O    -7.156000000    -4.005000000     4.774000000
H    -6.207000000    -3.896000000     4.827000000
H    -7.278000000    -4.899000000     4.456000000
O    -6.331000000    -4.649000000     1.559000000
H    -6.348000000    -5.596000000     1.702000000
H    -5.416000000    -4.403000000     1.696000000
O    -4.161000000    -8.390000000     2.200000000
H    -4.987000000    -8.328000000     1.720000000
H    -4.121000000    -7.582000000     2.712000000
O    -4.313000000    -3.429000000     6.010000000
H    -4.268000000    -4.379000000     6.125000000
H    -3.568000000    -3.221000000     5.446000000
O    -2.436000000    -6.699000000     4.052000000
H    -1.988000000    -5.864000000     4.187000000
H    -1.800000000    -7.359000000     4.330000000
O     1.259000000    -5.914000000     5.167000000
H     0.597000000    -5.383000000     4.725000000
H     1.874000000    -6.156000000     4.475000000
O    -0.999000000    -2.928000000    -1.614000000
H    -0.366000000    -3.617000000    -1.414000000
H    -0.882000000    -2.285000000    -0.914000000
O     1.197000000    -8.659000000     1.019000000
H     1.315000000    -7.736000000     1.245000000
H     0.248000000    -8.787000000     1.025000000
O    -2.581000000    -4.574000000     9.228000000
H    -2.003000000    -3.996000000     9.725000000
H    -2.054000000    -4.852000000     8.478000000
O     0.086000000    -6.420000000     1.787000000
H    -0.658000000    -7.021000000     1.822000000
H    -0.211000000    -5.645000000     2.265000000
