215
-1491.13372
C    -5.303000000     1.124000000    -1.930000000
H    -5.139000000     0.997000000    -2.997000000
C    -4.509000000     1.999000000    -1.095000000
C    -4.928000000     2.208000000     0.190000000
H    -4.394000000     2.880000000     0.857000000
C    -3.216000000     2.651000000    -1.558000000
O    -3.251000000     2.954000000    -2.998000000
H    -2.342000000     2.023000000    -1.330000000
O    -3.037000000     3.895000000    -0.872000000
C    -1.805000000     4.276000000    -0.481000000
C    -1.520000000     4.004000000     0.834000000
H    -2.252000000     3.526000000     1.479000000
C    -0.217000000     4.181000000     1.356000000
O     0.029000000     3.837000000     2.686000000
C     0.786000000     4.583000000     0.507000000
C     2.219000000     4.879000000     1.002000000
H     2.592000000     5.654000000     0.329000000
C     2.989000000     3.551000000     1.030000000
C     3.735000000     3.155000000    -0.063000000
H     3.792000000     3.752000000    -0.969000000
H     2.235000000     5.363000000     1.981000000
C     0.492000000     4.854000000    -0.783000000
H     1.303000000     5.246000000    -1.392000000
C    -0.777000000     4.703000000    -1.251000000
C    -1.055000000     4.901000000    -2.753000000
H    -0.372000000     5.675000000    -3.108000000
H    -2.079000000     5.259000000    -2.872000000
C    -0.912000000     3.546000000    -3.443000000
C     0.298000000     3.090000000    -3.791000000
H     1.236000000     3.632000000    -3.701000000
C    -2.037000000     2.699000000    -3.580000000
C    -1.960000000     1.316000000    -4.051000000
H    -2.816000000     0.649000000    -4.116000000
C    -0.677000000     0.911000000    -4.431000000
O    -0.572000000    -0.432000000    -4.703000000
C     0.200000000    -1.265000000    -3.799000000
C    -0.584000000    -2.580000000    -3.641000000
C     0.089000000    -3.728000000    -3.299000000
H     1.163000000    -3.647000000    -3.153000000
C    -1.941000000    -2.640000000    -3.751000000
H    -2.518000000    -1.748000000    -3.985000000
O     1.549000000    -1.502000000    -4.310000000
H     0.305000000    -0.705000000    -2.858000000
C     0.434000000     1.813000000    -4.346000000
C     1.803000000     1.309000000    -4.892000000
H     2.358000000     2.140000000    -5.335000000
H     1.624000000     0.610000000    -5.711000000
C     2.661000000     0.574000000    -3.873000000
C     3.564000000     1.310000000    -3.070000000
H     3.648000000     2.378000000    -3.255000000
C     2.507000000    -0.815000000    -3.678000000
C     3.293000000    -1.490000000    -2.708000000
H     3.104000000    -2.548000000    -2.540000000
C     4.210000000    -0.744000000    -2.010000000
O     4.772000000    -1.404000000    -0.942000000
C     4.136000000    -1.137000000     0.341000000
C     4.059000000    -2.408000000     1.184000000
C     3.736000000    -3.628000000     0.567000000
H     3.624000000    -3.684000000    -0.513000000
C     4.227000000    -2.317000000     2.571000000
H     4.375000000    -1.404000000     3.143000000
O     4.993000000    -0.177000000     1.050000000
H     3.136000000    -0.707000000     0.185000000
C     4.397000000     0.600000000    -2.201000000
C     5.244000000     1.459000000    -1.335000000
H     5.745000000     2.294000000    -1.830000000
H     6.056000000     0.823000000    -0.977000000
C     4.467000000     1.934000000    -0.087000000
C     4.462000000     1.129000000     1.030000000
C     3.772000000     1.536000000     2.204000000
H     3.519000000     0.788000000     2.951000000
C     3.036000000     2.710000000     2.169000000
O     2.093000000     2.917000000     3.202000000
C     0.750000000     2.581000000     2.896000000
H     0.835000000     1.953000000     1.996000000
C     0.058000000     1.794000000     4.006000000
C    -1.343000000     1.777000000     4.121000000
H    -1.909000000     2.311000000     3.362000000
C     0.898000000     1.029000000     4.878000000
H     1.975000000     1.062000000     4.732000000
C     0.310000000     0.133000000     5.798000000
O     1.114000000    -0.484000000     6.684000000
C    -1.108000000     0.107000000     5.899000000
H    -1.642000000    -0.540000000     6.589000000
C    -1.920000000     0.907000000     5.077000000
O    -3.294000000     0.714000000     5.236000000
C    -4.161000000     1.686000000     4.784000000
C    -4.770000000     1.502000000     3.561000000
H    -4.511000000     0.653000000     2.933000000
C    -4.381000000     2.868000000     5.517000000
H    -3.893000000     3.050000000     6.471000000
C    -5.292000000     3.797000000     4.966000000
H    -5.550000000     4.659000000     5.576000000
C    -6.037000000     3.592000000     3.773000000
H    -6.734000000     4.254000000     3.265000000
C    -5.745000000     2.431000000     3.041000000
O    -6.549000000     2.053000000     1.947000000
C    -5.999000000     1.579000000     0.766000000
C    -6.740000000     0.632000000     0.048000000
H    -7.573000000     0.044000000     0.426000000
C    -6.363000000     0.483000000    -1.297000000
O    -7.028000000    -0.456000000    -2.050000000
C    -6.420000000    -1.169000000    -3.054000000
C    -5.531000000    -2.253000000    -2.745000000
H    -5.227000000    -2.362000000    -1.707000000
C    -6.602000000    -0.695000000    -4.374000000
H    -7.293000000     0.126000000    -4.544000000
C    -5.908000000    -1.397000000    -5.408000000
H    -6.033000000    -1.022000000    -6.421000000
C    -5.100000000    -2.496000000    -5.147000000
H    -4.657000000    -3.052000000    -5.970000000
C    -4.879000000    -2.910000000    -3.824000000
O    -4.000000000    -3.951000000    -3.694000000
C    -2.627000000    -3.849000000    -3.600000000
C    -1.916000000    -5.027000000    -3.332000000
H    -2.490000000    -5.949000000    -3.319000000
C    -0.516000000    -4.966000000    -3.147000000
O     0.270000000    -6.088000000    -2.882000000
C     1.547000000    -6.131000000    -2.438000000
C     1.752000000    -6.114000000    -1.024000000
H     0.957000000    -5.933000000    -0.306000000
C     2.589000000    -6.322000000    -3.315000000
H     2.464000000    -6.399000000    -4.392000000
C     3.926000000    -6.353000000    -2.784000000
H     4.735000000    -6.375000000    -3.509000000
C     4.131000000    -6.204000000    -1.430000000
H     5.156000000    -6.317000000    -1.086000000
C     3.049000000    -6.129000000    -0.547000000
O     3.202000000    -5.998000000     0.827000000
C     3.615000000    -4.769000000     1.374000000
C     3.812000000    -4.657000000     2.764000000
H     3.674000000    -5.540000000     3.382000000
C     3.981000000    -3.433000000     3.376000000
O     4.168000000    -3.455000000     4.733000000
C     3.964000000    -2.370000000     5.576000000
C     4.997000000    -1.900000000     6.363000000
H     6.037000000    -2.196000000     6.247000000
C     4.703000000    -0.848000000     7.278000000
H     5.473000000    -0.417000000     7.913000000
C     3.437000000    -0.304000000     7.304000000
H     3.275000000     0.497000000     8.022000000
C     2.464000000    -0.806000000     6.475000000
C     2.675000000    -1.898000000     5.684000000
H     1.844000000    -2.355000000     5.154000000
C     0.586000000    -2.981000000     1.079000000
H     1.056000000    -3.960000000     1.128000000
C     0.786000000    -2.082000000     0.009000000
H     1.458000000    -2.276000000    -0.823000000
C     0.201000000    -0.813000000     0.018000000
H     0.307000000    -0.051000000    -0.766000000
C    -0.468000000    -0.462000000     1.139000000
H    -0.847000000     0.543000000     1.308000000
C    -0.620000000    -1.310000000     2.216000000
H    -0.960000000    -0.896000000     3.162000000
C    -0.138000000    -2.599000000     2.209000000
C    -0.108000000    -3.421000000     3.451000000
O    -0.589000000    -2.952000000     4.465000000
O     0.247000000    -4.559000000     3.415000000
O    -2.034000000    -5.569000000     2.363000000
H    -2.761000000    -5.392000000     2.960000000
H    -1.268000000    -5.201000000     2.803000000
O     0.928000000    -9.774000000     4.375000000
H     1.259000000    -9.157000000     3.723000000
H    -0.017000000    -9.801000000     4.221000000
O    -0.642000000    -3.212000000     7.842000000
H    -0.186000000    -3.852000000     7.295000000
H    -0.155000000    -2.398000000     7.714000000
O    -0.714000000    -7.417000000     0.939000000
H    -0.046000000    -7.586000000     1.603000000
H    -1.326000000    -6.815000000     1.362000000
O    -5.027000000    -0.858000000     7.229000000
H    -4.694000000    -1.125000000     6.372000000
H    -4.284000000    -0.427000000     7.651000000
O     0.134000000    -7.638000000     6.297000000
H     0.235000000    -7.901000000     7.212000000
H    -0.103000000    -8.445000000     5.840000000
O    -4.070000000    -5.273000000     7.000000000
H    -3.790000000    -5.835000000     7.723000000
H    -3.348000000    -5.312000000     6.373000000
O    -3.965000000    -3.895000000     3.798000000
H    -3.596000000    -3.557000000     4.614000000
H    -4.912000000    -3.821000000     3.916000000
O     3.206000000    -5.358000000     7.872000000
H     2.813000000    -5.054000000     7.054000000
H     3.371000000    -4.558000000     8.371000000
O    -4.075000000    -7.667000000     4.576000000
H    -4.284000000    -7.941000000     5.469000000
H    -3.419000000    -6.978000000     4.684000000
O    -2.909000000    -2.879000000     6.154000000
H    -2.727000000    -3.237000000     7.023000000
H    -2.049000000    -2.648000000     5.805000000
O    -1.889000000    -5.649000000     5.558000000
H    -1.581000000    -4.795000000     5.254000000
H    -1.092000000    -6.172000000     5.648000000
O     3.131000000    -8.026000000     6.892000000
H     2.772000000    -7.978000000     6.006000000
H     3.110000000    -7.123000000     7.209000000
O    -4.642000000    -2.119000000     1.707000000
H    -4.157000000    -2.756000000     2.232000000
H    -4.166000000    -2.078000000     0.878000000
O     1.324000000    -5.208000000     5.695000000
H     0.764000000    -4.854000000     5.004000000
H     0.996000000    -6.097000000     5.836000000
O    -2.498000000    -3.617000000     0.280000000
H    -1.736000000    -3.710000000    -0.292000000
H    -2.378000000    -4.290000000     0.950000000
O    -4.595000000    -5.527000000    -1.018000000
H    -3.917000000    -6.158000000    -1.260000000
H    -4.116000000    -4.718000000    -0.838000000
O    -2.235000000    -3.871000000     9.906000000
H    -1.693000000    -3.664000000     9.144000000
H    -1.609000000    -4.138000000    10.579000000
O     1.221000000    -7.259000000     2.716000000
H     1.969000000    -7.246000000     2.119000000
H     1.040000000    -6.336000000     2.893000000
