215
-1465.24530
C    -2.428000000    -1.544000000    -4.370000000
H    -1.759000000    -2.310000000    -4.753000000
C    -1.895000000    -0.312000000    -3.990000000
C    -2.743000000     0.659000000    -3.584000000
H    -2.404000000     1.690000000    -3.531000000
C    -0.431000000     0.077000000    -4.080000000
O     0.446000000    -0.785000000    -4.822000000
H    -0.162000000    -0.006000000    -3.016000000
O    -0.103000000     1.418000000    -4.507000000
C     0.819000000     2.232000000    -3.861000000
C     0.270000000     3.205000000    -3.034000000
H    -0.760000000     3.545000000    -2.966000000
C     1.127000000     3.923000000    -2.194000000
O     0.607000000     4.827000000    -1.342000000
C     2.488000000     3.690000000    -2.132000000
C     3.421000000     4.380000000    -1.100000000
H     4.401000000     4.478000000    -1.572000000
C     3.406000000     3.719000000     0.292000000
C     4.229000000     2.656000000     0.545000000
H     4.904000000     2.341000000    -0.246000000
H     3.153000000     5.432000000    -0.984000000
C     2.983000000     2.741000000    -2.999000000
H     4.041000000     2.497000000    -2.954000000
C     2.171000000     1.971000000    -3.848000000
C     2.863000000     0.863000000    -4.572000000
H     3.934000000     1.073000000    -4.614000000
H     2.574000000     0.872000000    -5.625000000
C     2.657000000    -0.536000000    -3.917000000
C     3.666000000    -1.112000000    -3.177000000
H     4.525000000    -0.495000000    -2.924000000
C     1.506000000    -1.297000000    -4.205000000
C     1.344000000    -2.540000000    -3.648000000
H     0.435000000    -3.116000000    -3.798000000
C     2.312000000    -3.030000000    -2.785000000
O     1.968000000    -4.181000000    -2.019000000
C     1.603000000    -3.983000000    -0.633000000
C     0.439000000    -4.871000000    -0.233000000
C     0.155000000    -4.941000000     1.131000000
H     0.765000000    -4.471000000     1.899000000
C    -0.489000000    -5.301000000    -1.203000000
H    -0.316000000    -5.154000000    -2.266000000
O     2.750000000    -4.193000000     0.272000000
H     1.417000000    -2.903000000    -0.539000000
C     3.509000000    -2.331000000    -2.534000000
C     4.573000000    -2.878000000    -1.534000000
H     5.574000000    -2.657000000    -1.912000000
H     4.651000000    -3.967000000    -1.524000000
C     4.371000000    -2.366000000    -0.116000000
C     4.905000000    -1.196000000     0.327000000
H     5.597000000    -0.694000000    -0.345000000
C     3.445000000    -3.045000000     0.697000000
C     3.119000000    -2.536000000     1.905000000
H     2.344000000    -2.991000000     2.516000000
C     3.586000000    -1.280000000     2.323000000
O     3.111000000    -0.841000000     3.505000000
C     2.189000000     0.242000000     3.470000000
C     1.058000000    -0.099000000     4.474000000
C     1.042000000    -1.260000000     5.178000000
H     1.819000000    -2.008000000     5.049000000
C     0.029000000     0.839000000     4.717000000
H     0.008000000     1.658000000     4.003000000
O     2.803000000     1.547000000     3.757000000
H     1.730000000     0.353000000     2.476000000
C     4.474000000    -0.578000000     1.494000000
C     5.074000000     0.783000000     1.983000000
H     5.990000000     1.109000000     1.487000000
H     5.334000000     0.684000000     3.039000000
C     4.121000000     1.944000000     1.720000000
C     3.098000000     2.255000000     2.642000000
C     2.202000000     3.242000000     2.304000000
H     1.388000000     3.554000000     2.954000000
C     2.323000000     3.956000000     1.108000000
O     1.375000000     4.844000000     0.745000000
C     0.338000000     4.350000000    -0.099000000
H     0.370000000     3.251000000    -0.104000000
C    -1.052000000     4.881000000     0.336000000
C    -2.083000000     5.089000000    -0.583000000
H    -1.758000000     4.959000000    -1.612000000
C    -1.380000000     5.105000000     1.665000000
H    -0.612000000     4.978000000     2.424000000
C    -2.689000000     5.365000000     2.074000000
O    -3.043000000     5.505000000     3.383000000
C    -3.645000000     5.520000000     1.104000000
H    -4.649000000     5.668000000     1.492000000
C    -3.351000000     5.398000000    -0.275000000
O    -4.345000000     5.686000000    -1.196000000
C    -4.430000000     4.985000000    -2.362000000
C    -4.555000000     3.632000000    -2.257000000
H    -4.604000000     3.064000000    -1.331000000
C    -4.219000000     5.559000000    -3.589000000
H    -4.071000000     6.632000000    -3.685000000
C    -4.284000000     4.716000000    -4.743000000
H    -4.030000000     5.171000000    -5.697000000
C    -4.644000000     3.331000000    -4.671000000
H    -4.625000000     2.646000000    -5.515000000
C    -4.728000000     2.836000000    -3.407000000
O    -5.009000000     1.474000000    -3.287000000
C    -4.095000000     0.485000000    -3.683000000
C    -4.554000000    -0.788000000    -4.003000000
H    -5.589000000    -1.037000000    -3.784000000
C    -3.737000000    -1.831000000    -4.404000000
O    -4.342000000    -3.049000000    -4.663000000
C    -3.684000000    -4.296000000    -4.472000000
C    -3.409000000    -4.695000000    -3.171000000
H    -3.757000000    -4.136000000    -2.307000000
C    -3.213000000    -4.966000000    -5.525000000
H    -3.546000000    -4.674000000    -6.517000000
C    -2.392000000    -6.037000000    -5.307000000
H    -1.795000000    -6.355000000    -6.158000000
C    -2.145000000    -6.510000000    -4.024000000
H    -1.496000000    -7.362000000    -3.841000000
C    -2.675000000    -5.845000000    -2.924000000
O    -2.514000000    -6.423000000    -1.688000000
C    -1.668000000    -5.834000000    -0.724000000
C    -1.894000000    -6.053000000     0.605000000
H    -2.793000000    -6.553000000     0.954000000
C    -0.993000000    -5.546000000     1.545000000
O    -1.340000000    -5.608000000     2.882000000
C    -0.508000000    -5.299000000     3.918000000
C    -0.724000000    -4.219000000     4.800000000
H    -1.642000000    -3.638000000     4.775000000
C     0.660000000    -6.024000000     4.180000000
H     0.863000000    -6.873000000     3.532000000
C     1.628000000    -5.661000000     5.138000000
H     2.533000000    -6.252000000     5.258000000
C     1.344000000    -4.621000000     5.969000000
H     2.008000000    -4.309000000     6.771000000
C     0.211000000    -3.850000000     5.757000000
O    -0.064000000    -2.775000000     6.578000000
C    -0.018000000    -1.558000000     6.020000000
C    -1.051000000    -0.639000000     6.294000000
H    -1.926000000    -0.909000000     6.879000000
C    -0.946000000     0.629000000     5.739000000
O    -1.976000000     1.544000000     6.027000000
C    -1.857000000     2.883000000     5.793000000
C    -1.258000000     3.739000000     6.790000000
H    -0.923000000     3.364000000     7.754000000
C    -1.039000000     5.075000000     6.462000000
H    -0.570000000     5.634000000     7.268000000
C    -1.609000000     5.646000000     5.329000000
H    -1.544000000     6.715000000     5.142000000
C    -2.332000000     4.868000000     4.418000000
C    -2.362000000     3.500000000     4.612000000
H    -2.882000000     2.863000000     3.902000000
C    -1.433000000    -1.109000000     0.795000000
H    -2.038000000    -1.939000000     1.151000000
C    -0.045000000    -1.222000000     0.655000000
H     0.495000000    -2.090000000     1.025000000
C     0.620000000    -0.251000000    -0.131000000
H     1.688000000    -0.368000000    -0.301000000
C    -0.024000000     0.765000000    -0.740000000
H     0.508000000     1.478000000    -1.364000000
C    -1.384000000     0.937000000    -0.519000000
H    -1.938000000     1.739000000    -1.000000000
C    -2.111000000    -0.012000000     0.231000000
C    -3.587000000     0.165000000     0.543000000
O    -4.206000000     0.985000000    -0.055000000
O    -4.115000000    -0.498000000     1.403000000
O    -7.954000000    -2.357000000    -0.361000000
H    -7.490000000    -3.170000000    -0.164000000
H    -7.260000000    -1.709000000    -0.487000000
O    -7.046000000     0.352000000     5.018000000
H    -6.278000000     0.052000000     5.504000000
H    -6.861000000     0.114000000     4.109000000
O    -6.659000000     5.612000000     3.504000000
H    -6.778000000     4.663000000     3.525000000
H    -6.097000000     5.801000000     4.255000000
O    -4.244000000    -3.346000000     0.306000000
H    -4.251000000    -2.402000000     0.466000000
H    -3.821000000    -3.717000000     1.080000000
O    -6.536000000    -4.698000000    -0.059000000
H    -6.443000000    -5.608000000     0.223000000
H    -5.703000000    -4.289000000     0.172000000
O    -8.801000000     2.952000000    -1.780000000
H    -8.909000000     3.636000000    -2.442000000
H    -7.875000000     2.715000000    -1.831000000
O    -6.552000000     0.341000000    -0.989000000
H    -5.690000000     0.479000000    -0.596000000
H    -6.483000000     0.731000000    -1.861000000
O    -9.014000000     2.035000000     1.532000000
H    -9.387000000     1.328000000     2.059000000
H    -8.137000000     2.166000000     1.891000000
O    -5.342000000     2.228000000     1.832000000
H    -5.309000000     3.050000000     1.342000000
H    -4.756000000     1.641000000     1.354000000
O    -9.744000000     0.411000000    -0.661000000
H    -9.713000000     1.297000000    -0.298000000
H    -8.830000000     0.195000000    -0.843000000
O    -6.343000000    -2.735000000     4.143000000
H    -6.264000000    -1.946000000     3.608000000
H    -7.090000000    -3.203000000     3.771000000
O    -4.439000000    -0.321000000     5.787000000
H    -4.009000000    -0.739000000     5.040000000
H    -4.838000000    -1.045000000     6.269000000
O    -6.487000000     3.077000000     4.025000000
H    -6.194000000     2.497000000     3.323000000
H    -6.705000000     2.489000000     4.748000000
O    -6.597000000    -0.529000000     2.277000000
H    -5.795000000    -0.358000000     1.784000000
H    -7.296000000    -0.466000000     1.627000000
O    -9.097000000    -1.318000000    -2.905000000
H    -9.547000000    -0.989000000    -2.128000000
H    -8.778000000    -2.184000000    -2.649000000
O    -4.045000000    -3.941000000     3.123000000
H    -3.230000000    -3.809000000     3.608000000
H    -4.731000000    -3.648000000     3.723000000
O    -8.237000000    -3.678000000     2.535000000
H    -8.727000000    -3.013000000     2.051000000
H    -8.036000000    -4.349000000     1.882000000
O    -2.652000000    -1.210000000     3.834000000
H    -2.734000000    -0.859000000     2.947000000
H    -1.758000000    -0.990000000     4.097000000
O   -10.347000000    -2.431000000     0.843000000
H    -9.667000000    -2.242000000     0.196000000
H   -10.917000000    -3.068000000     0.413000000
