215
-1439.50776
C    -4.816000000     0.642000000     0.008000000
H    -4.505000000     0.345000000    -0.990000000
C    -4.203000000     1.736000000     0.601000000
C    -4.504000000     2.066000000     1.917000000
H    -4.022000000     2.890000000     2.436000000
C    -3.198000000     2.653000000    -0.155000000
O    -3.563000000     3.051000000    -1.493000000
H    -2.249000000     2.098000000    -0.160000000
O    -2.952000000     3.885000000     0.585000000
C    -1.645000000     4.181000000     0.807000000
C    -1.102000000     4.033000000     2.089000000
H    -1.785000000     3.545000000     2.778000000
C     0.195000000     4.403000000     2.348000000
O     0.782000000     3.851000000     3.480000000
C     1.005000000     4.754000000     1.269000000
C     2.522000000     4.862000000     1.424000000
H     2.824000000     5.741000000     0.850000000
C     3.336000000     3.566000000     1.134000000
C     3.799000000     3.355000000    -0.157000000
H     3.738000000     4.153000000    -0.893000000
H     2.680000000     5.298000000     2.412000000
C     0.430000000     4.956000000     0.025000000
H     1.110000000     5.121000000    -0.807000000
C    -0.929000000     4.799000000    -0.200000000
C    -1.506000000     5.003000000    -1.620000000
H    -0.878000000     5.750000000    -2.112000000
H    -2.498000000     5.443000000    -1.495000000
C    -1.613000000     3.788000000    -2.514000000
C    -0.574000000     3.549000000    -3.407000000
H     0.296000000     4.198000000    -3.471000000
C    -2.666000000     2.874000000    -2.467000000
C    -2.680000000     1.758000000    -3.259000000
H    -3.515000000     1.068000000    -3.177000000
C    -1.616000000     1.501000000    -4.110000000
O    -1.589000000     0.271000000    -4.651000000
C    -0.588000000    -0.695000000    -4.193000000
C    -1.124000000    -2.102000000    -4.169000000
C    -0.416000000    -3.253000000    -4.584000000
H     0.552000000    -3.134000000    -5.064000000
C    -2.450000000    -2.272000000    -3.720000000
H    -2.988000000    -1.392000000    -3.379000000
O     0.700000000    -0.774000000    -4.959000000
H    -0.423000000    -0.511000000    -3.121000000
C    -0.537000000     2.390000000    -4.189000000
C     0.677000000     2.112000000    -5.107000000
H     1.126000000     3.062000000    -5.405000000
H     0.465000000     1.565000000    -6.028000000
C     1.697000000     1.299000000    -4.332000000
C     2.675000000     1.940000000    -3.607000000
H     2.634000000     3.026000000    -3.591000000
C     1.683000000    -0.033000000    -4.482000000
C     2.659000000    -0.809000000    -3.768000000
H     2.590000000    -1.887000000    -3.885000000
C     3.657000000    -0.140000000    -3.008000000
O     4.389000000    -0.835000000    -2.128000000
C     3.904000000    -0.912000000    -0.820000000
C     3.760000000    -2.301000000    -0.352000000
C     3.864000000    -3.374000000    -1.298000000
H     4.069000000    -3.175000000    -2.346000000
C     3.545000000    -2.575000000     0.992000000
H     3.711000000    -1.720000000     1.644000000
O     4.776000000    -0.117000000    -0.008000000
H     2.874000000    -0.527000000    -0.798000000
C     3.656000000     1.248000000    -2.968000000
C     4.743000000     1.947000000    -2.054000000
H     4.819000000     2.973000000    -2.419000000
H     5.740000000     1.502000000    -2.072000000
C     4.305000000     2.087000000    -0.557000000
C     4.348000000     1.105000000     0.405000000
C     3.867000000     1.294000000     1.681000000
H     4.032000000     0.528000000     2.435000000
C     3.450000000     2.535000000     2.071000000
O     2.859000000     2.673000000     3.289000000
C     1.400000000     2.523000000     3.362000000
H     1.105000000     1.980000000     2.451000000
C     1.042000000     1.727000000     4.569000000
C    -0.196000000     1.837000000     5.187000000
H    -0.843000000     2.675000000     4.942000000
C     1.849000000     0.651000000     5.008000000
H     2.728000000     0.412000000     4.415000000
C     1.506000000    -0.185000000     6.002000000
O     2.467000000    -1.086000000     6.435000000
C     0.332000000     0.014000000     6.690000000
H     0.011000000    -0.624000000     7.510000000
C    -0.542000000     1.013000000     6.288000000
O    -1.819000000     1.039000000     6.845000000
C    -2.884000000     1.770000000     6.363000000
C    -3.695000000     1.317000000     5.291000000
H    -3.353000000     0.405000000     4.809000000
C    -3.350000000     2.934000000     7.024000000
H    -2.740000000     3.410000000     7.787000000
C    -4.617000000     3.452000000     6.801000000
H    -4.931000000     4.381000000     7.271000000
C    -5.361000000     2.976000000     5.732000000
H    -6.320000000     3.396000000     5.441000000
C    -4.935000000     1.949000000     4.949000000
O    -5.707000000     1.495000000     3.920000000
C    -5.358000000     1.194000000     2.636000000
C    -5.917000000     0.114000000     2.063000000
H    -6.571000000    -0.527000000     2.649000000
C    -5.716000000    -0.137000000     0.724000000
O    -6.368000000    -1.198000000     0.190000000
C    -6.279000000    -1.562000000    -1.082000000
C    -5.371000000    -2.523000000    -1.440000000
H    -4.831000000    -3.057000000    -0.662000000
C    -7.016000000    -0.882000000    -2.044000000
H    -7.692000000    -0.072000000    -1.783000000
C    -6.836000000    -1.195000000    -3.405000000
H    -7.378000000    -0.610000000    -4.143000000
C    -5.881000000    -2.137000000    -3.773000000
H    -5.476000000    -2.384000000    -4.751000000
C    -5.163000000    -2.829000000    -2.791000000
O    -4.224000000    -3.826000000    -3.144000000
C    -2.913000000    -3.558000000    -3.544000000
C    -2.165000000    -4.702000000    -3.955000000
H    -2.736000000    -5.618000000    -3.830000000
C    -0.908000000    -4.551000000    -4.485000000
O    -0.074000000    -5.617000000    -4.873000000
C     1.227000000    -5.679000000    -4.593000000
C     1.715000000    -5.521000000    -3.292000000
H     0.990000000    -5.251000000    -2.528000000
C     2.047000000    -6.129000000    -5.589000000
H     1.778000000    -6.239000000    -6.636000000
C     3.379000000    -6.412000000    -5.323000000
H     4.014000000    -6.680000000    -6.163000000
C     3.878000000    -6.200000000    -4.028000000
H     4.946000000    -6.333000000    -3.876000000
C     3.024000000    -5.837000000    -3.003000000
O     3.549000000    -5.795000000    -1.692000000
C     3.519000000    -4.637000000    -0.891000000
C     3.266000000    -4.899000000     0.425000000
H     3.328000000    -5.931000000     0.761000000
C     3.292000000    -3.877000000     1.391000000
O     3.120000000    -4.106000000     2.687000000
C     3.548000000    -3.351000000     3.711000000
C     4.908000000    -3.345000000     3.929000000
H     5.557000000    -4.000000000     3.354000000
C     5.442000000    -2.691000000     4.989000000
H     6.520000000    -2.655000000     5.121000000
C     4.604000000    -1.887000000     5.742000000
H     5.120000000    -1.250000000     6.456000000
C     3.246000000    -1.820000000     5.483000000
C     2.672000000    -2.598000000     4.486000000
H     1.598000000    -2.649000000     4.324000000
C    -0.390000000    -2.996000000     1.188000000
H    -0.147000000    -4.029000000     0.952000000
C    -0.079000000    -1.979000000     0.294000000
H     0.319000000    -2.163000000    -0.701000000
C    -0.502000000    -0.687000000     0.593000000
H    -0.418000000     0.026000000    -0.236000000
C    -0.964000000    -0.384000000     1.829000000
H    -1.049000000     0.654000000     2.141000000
C    -1.242000000    -1.396000000     2.695000000
H    -1.619000000    -1.145000000     3.683000000
C    -0.994000000    -2.743000000     2.388000000
C    -1.216000000    -3.858000000     3.396000000
O    -1.397000000    -3.510000000     4.532000000
O    -1.328000000    -5.003000000     3.060000000
O    -0.275000000    -9.689000000     2.799000000
H     0.628000000    -9.988000000     2.906000000
H    -0.200000000    -8.743000000     2.675000000
O     2.849000000    -7.630000000     2.824000000
H     2.165000000    -7.000000000     3.053000000
H     2.539000000    -8.036000000     2.014000000
O    -1.210000000    -2.951000000     7.066000000
H    -1.279000000    -3.125000000     6.127000000
H    -0.313000000    -3.197000000     7.290000000
O     2.771000000    -6.893000000     6.345000000
H     2.786000000    -7.704000000     5.836000000
H     2.128000000    -6.342000000     5.898000000
O    -2.563000000    -2.546000000     9.425000000
H    -3.279000000    -3.146000000     9.636000000
H    -2.370000000    -2.719000000     8.504000000
O    -4.845000000    -5.950000000     6.886000000
H    -4.158000000    -5.817000000     6.233000000
H    -4.634000000    -6.793000000     7.287000000
O     1.428000000    -3.679000000     7.422000000
H     2.001000000    -4.051000000     8.092000000
H     1.997000000    -3.097000000     6.917000000
O    -2.147000000    -8.272000000     4.686000000
H    -2.271000000    -8.974000000     4.046000000
H    -1.228000000    -8.343000000     4.944000000
O    -2.971000000    -5.053000000     0.935000000
H    -3.656000000    -5.690000000     1.136000000
H    -2.639000000    -4.781000000     1.790000000
O    -4.041000000    -3.386000000     5.282000000
H    -4.043000000    -4.341000000     5.229000000
H    -3.147000000    -3.135000000     5.049000000
O    -3.125000000    -5.857000000     4.852000000
H    -2.608000000    -5.270000000     4.301000000
H    -2.970000000    -6.728000000     4.485000000
O     0.499000000    -5.780000000     4.964000000
H    -0.112000000    -6.036000000     4.273000000
H     0.632000000    -4.841000000     4.830000000
O    -1.074000000    -5.735000000    -0.803000000
H    -1.554000000    -6.540000000    -1.000000000
H    -1.659000000    -5.244000000    -0.226000000
O     2.021000000    -8.592000000     0.243000000
H     1.235000000    -8.048000000     0.282000000
H     1.854000000    -9.204000000    -0.474000000
O    -1.218000000    -5.787000000     7.495000000
H    -0.684000000    -5.898000000     6.708000000
H    -1.475000000    -4.865000000     7.481000000
O    -5.000000000    -1.450000000     7.803000000
H    -4.671000000    -1.492000000     6.905000000
H    -4.214000000    -1.496000000     8.348000000
O    -6.689000000    -3.916000000     4.713000000
H    -5.820000000    -3.516000000     4.748000000
H    -6.539000000    -4.781000000     4.332000000
O     0.038000000    -6.906000000     1.451000000
H    -0.140000000    -6.443000000     0.632000000
H    -0.329000000    -6.340000000     2.131000000
O    -3.225000000    -8.153000000     7.577000000
H    -2.764000000    -7.529000000     8.138000000
H    -2.647000000    -8.268000000     6.822000000
