215
-1431.99667
C    -4.613000000     0.020000000    -0.697000000
H    -4.802000000     0.170000000    -1.757000000
C    -3.748000000     0.839000000     0.124000000
C    -3.589000000     0.471000000     1.469000000
H    -2.829000000     0.968000000     2.066000000
C    -3.043000000     2.001000000    -0.456000000
O    -3.590000000     2.594000000    -1.637000000
H    -1.955000000     1.834000000    -0.452000000
O    -3.111000000     3.088000000     0.465000000
C    -1.999000000     3.794000000     0.838000000
C    -1.441000000     3.598000000     2.118000000
H    -2.072000000     3.140000000     2.874000000
C    -0.240000000     4.004000000     2.417000000
O     0.197000000     3.613000000     3.637000000
C     0.538000000     4.679000000     1.471000000
C     2.060000000     4.992000000     1.737000000
H     2.327000000     5.759000000     1.007000000
C     2.978000000     3.854000000     1.535000000
C     3.646000000     3.672000000     0.324000000
H     3.649000000     4.484000000    -0.398000000
H     2.112000000     5.349000000     2.768000000
C     0.039000000     4.943000000     0.199000000
H     0.596000000     5.469000000    -0.572000000
C    -1.254000000     4.533000000    -0.089000000
C    -1.901000000     4.936000000    -1.421000000
H    -1.416000000     5.843000000    -1.790000000
H    -2.961000000     5.129000000    -1.244000000
C    -1.743000000     3.859000000    -2.434000000
C    -0.576000000     3.932000000    -3.237000000
H     0.183000000     4.698000000    -3.100000000
C    -2.649000000     2.790000000    -2.606000000
C    -2.468000000     1.858000000    -3.560000000
H    -3.089000000     0.966000000    -3.567000000
C    -1.278000000     1.933000000    -4.290000000
O    -1.171000000     0.851000000    -5.080000000
C    -0.329000000    -0.276000000    -4.449000000
C    -0.920000000    -1.626000000    -4.754000000
C    -0.097000000    -2.729000000    -4.754000000
H     0.974000000    -2.638000000    -4.915000000
C    -2.312000000    -1.828000000    -4.656000000
H    -2.952000000    -0.999000000    -4.363000000
O     1.015000000    -0.111000000    -4.936000000
H    -0.309000000    -0.089000000    -3.365000000
C    -0.258000000     2.900000000    -4.140000000
C     1.051000000     2.827000000    -4.856000000
H     1.534000000     3.803000000    -4.936000000
H     0.971000000     2.468000000    -5.884000000
C     1.995000000     1.919000000    -4.042000000
C     2.912000000     2.550000000    -3.158000000
H     2.833000000     3.620000000    -2.985000000
C     1.850000000     0.528000000    -4.053000000
C     2.676000000    -0.234000000    -3.271000000
H     2.502000000    -1.306000000    -3.320000000
C     3.516000000     0.397000000    -2.376000000
O     4.182000000    -0.446000000    -1.501000000
C     3.707000000    -0.556000000    -0.235000000
C     3.450000000    -2.052000000     0.138000000
C     3.361000000    -3.071000000    -0.788000000
H     3.409000000    -2.825000000    -1.846000000
C     3.282000000    -2.317000000     1.496000000
H     3.208000000    -1.492000000     2.199000000
O     4.649000000     0.167000000     0.580000000
H     2.691000000    -0.133000000    -0.232000000
C     3.747000000     1.773000000    -2.416000000
C     4.746000000     2.382000000    -1.441000000
H     5.109000000     3.380000000    -1.694000000
H     5.697000000     1.857000000    -1.335000000
C     4.229000000     2.488000000    -0.060000000
C     4.344000000     1.465000000     0.909000000
C     3.716000000     1.621000000     2.183000000
H     3.849000000     0.885000000     2.971000000
C     3.114000000     2.801000000     2.502000000
O     2.483000000     2.858000000     3.717000000
C     1.107000000     2.500000000     3.776000000
H     0.906000000     1.757000000     2.990000000
C     0.840000000     1.790000000     5.068000000
C    -0.351000000     1.853000000     5.698000000
H    -1.113000000     2.531000000     5.324000000
C     1.758000000     0.910000000     5.577000000
H     2.753000000     0.834000000     5.147000000
C     1.484000000     0.013000000     6.650000000
O     2.465000000    -0.846000000     7.063000000
C     0.294000000     0.141000000     7.269000000
H    -0.114000000    -0.599000000     7.952000000
C    -0.615000000     1.064000000     6.801000000
O    -1.836000000     1.010000000     7.323000000
C    -2.888000000     0.957000000     6.429000000
C    -2.916000000     0.049000000     5.322000000
H    -2.128000000    -0.692000000     5.220000000
C    -3.885000000     1.922000000     6.430000000
H    -3.969000000     2.615000000     7.263000000
C    -4.857000000     1.948000000     5.456000000
H    -5.590000000     2.748000000     5.520000000
C    -4.954000000     0.984000000     4.476000000
H    -5.831000000     0.944000000     3.836000000
C    -3.919000000     0.079000000     4.347000000
O    -3.910000000    -0.910000000     3.412000000
C    -4.173000000    -0.669000000     2.063000000
C    -4.944000000    -1.446000000     1.255000000
H    -5.334000000    -2.389000000     1.629000000
C    -5.155000000    -1.160000000    -0.118000000
O    -5.960000000    -1.921000000    -0.892000000
C    -6.082000000    -1.880000000    -2.228000000
C    -5.069000000    -2.455000000    -2.959000000
H    -4.291000000    -2.963000000    -2.395000000
C    -7.203000000    -1.398000000    -2.789000000
H    -8.033000000    -1.001000000    -2.210000000
C    -7.280000000    -1.462000000    -4.169000000
H    -8.082000000    -0.966000000    -4.710000000
C    -6.273000000    -2.090000000    -4.939000000
H    -6.254000000    -2.114000000    -6.025000000
C    -5.164000000    -2.580000000    -4.335000000
O    -4.199000000    -3.275000000    -5.044000000
C    -2.797000000    -3.098000000    -4.949000000
C    -1.945000000    -4.167000000    -5.230000000
H    -2.284000000    -5.151000000    -5.546000000
C    -0.588000000    -4.017000000    -5.022000000
O     0.264000000    -5.109000000    -5.239000000
C     1.534000000    -5.172000000    -4.728000000
C     1.665000000    -5.255000000    -3.324000000
H     0.751000000    -5.338000000    -2.742000000
C     2.652000000    -4.965000000    -5.488000000
H     2.610000000    -5.046000000    -6.571000000
C     3.887000000    -4.956000000    -4.852000000
H     4.735000000    -4.733000000    -5.495000000
C     4.021000000    -5.000000000    -3.452000000
H     5.004000000    -4.783000000    -3.041000000
C     2.899000000    -5.210000000    -2.675000000
O     2.975000000    -5.349000000    -1.328000000
C     3.085000000    -4.385000000    -0.415000000
C     2.901000000    -4.680000000     0.960000000
H     2.587000000    -5.672000000     1.276000000
C     2.930000000    -3.612000000     1.873000000
O     2.529000000    -3.809000000     3.153000000
C     3.185000000    -3.199000000     4.263000000
C     4.525000000    -3.510000000     4.461000000
H     4.980000000    -4.341000000     3.928000000
C     5.219000000    -2.918000000     5.509000000
H     6.216000000    -3.266000000     5.766000000
C     4.531000000    -2.027000000     6.456000000
H     5.033000000    -1.566000000     7.302000000
C     3.169000000    -1.712000000     6.163000000
C     2.530000000    -2.301000000     5.073000000
H     1.490000000    -2.155000000     4.790000000
C    -0.529000000    -3.055000000    -0.053000000
H    -0.640000000    -4.015000000    -0.551000000
C    -0.063000000    -2.031000000    -0.813000000
H     0.100000000    -2.212000000    -1.872000000
C     0.038000000    -0.702000000    -0.244000000
H     0.248000000     0.132000000    -0.964000000
C    -0.248000000    -0.566000000     1.118000000
H    -0.228000000     0.437000000     1.537000000
C    -0.555000000    -1.710000000     1.902000000
H    -0.682000000    -1.562000000     2.972000000
C    -0.690000000    -2.954000000     1.348000000
C    -1.119000000    -4.022000000     2.223000000
O    -1.236000000    -3.825000000     3.404000000
O    -1.583000000    -5.032000000     1.749000000
O     1.632000000    -5.300000000     7.541000000
H     2.321000000    -4.666000000     7.737000000
H     2.102000000    -6.094000000     7.284000000
O     1.858000000    -7.598000000    -0.498000000
H     2.031000000    -6.731000000    -0.864000000
H     0.953000000    -7.550000000    -0.189000000
O    -1.525000000    -2.650000000     8.219000000
H    -2.476000000    -2.547000000     8.191000000
H    -1.295000000    -2.990000000     7.354000000
O    -0.391000000    -9.628000000     1.117000000
H    -1.051000000   -10.219000000     0.755000000
H    -0.661000000    -8.758000000     0.823000000
O    -0.002000000    -7.877000000     7.903000000
H    -0.773000000    -8.056000000     8.442000000
H    -0.274000000    -7.164000000     7.325000000
O    -5.771000000    -6.496000000     3.421000000
H    -5.104000000    -6.625000000     2.747000000
H    -5.345000000    -6.767000000     4.234000000
O    -4.098000000    -6.662000000     5.782000000
H    -4.404000000    -6.343000000     6.632000000
H    -3.158000000    -6.797000000     5.901000000
O    -3.733000000    -7.648000000     1.740000000
H    -3.325000000    -8.319000000     2.287000000
H    -3.226000000    -6.855000000     1.916000000
O     0.970000000    -8.090000000     4.190000000
H     0.828000000    -8.661000000     4.945000000
H     0.896000000    -8.671000000     3.433000000
O    -4.956000000    -3.401000000     7.149000000
H    -4.806000000    -2.560000000     7.580000000
H    -4.375000000    -3.388000000     6.389000000
O    -0.464000000    -3.918000000     5.856000000
H    -0.671000000    -3.769000000     4.933000000
H     0.474000000    -4.109000000     5.863000000
O    -5.992000000    -4.941000000    -0.870000000
H    -6.064000000    -5.840000000    -1.191000000
H    -6.899000000    -4.655000000    -0.755000000
O     3.140000000    -6.478000000     4.591000000
H     2.287000000    -6.776000000     4.275000000
H     3.581000000    -6.144000000     3.810000000
O    -3.320000000    -4.674000000    -0.437000000
H    -4.278000000    -4.663000000    -0.435000000
H    -3.079000000    -4.610000000     0.487000000
O    -2.215000000    -6.401000000    -2.485000000
H    -3.045000000    -6.751000000    -2.809000000
H    -2.465000000    -5.647000000    -1.951000000
O    -1.468000000    -6.423000000     4.159000000
H    -0.604000000    -6.822000000     4.051000000
H    -1.394000000    -5.572000000     3.727000000
O    -6.351000000    -3.551000000     3.725000000
H    -5.441000000    -3.745000000     3.949000000
H    -6.558000000    -4.156000000     3.013000000
O    -3.610000000    -3.540000000     4.413000000
H    -3.642000000    -2.843000000     3.758000000
H    -2.708000000    -3.860000000     4.378000000
O    -1.209000000    -7.229000000     0.083000000
H    -1.855000000    -7.011000000    -0.589000000
H    -1.195000000    -6.463000000     0.657000000
