215
-1472.53769
C    -3.952000000     0.121000000    -1.126000000
H    -3.576000000     0.244000000    -2.139000000
C    -3.785000000     1.266000000    -0.334000000
C    -4.517000000     1.307000000     0.870000000
H    -4.407000000     2.231000000     1.431000000
C    -2.856000000     2.347000000    -0.783000000
O    -3.028000000     2.638000000    -2.195000000
H    -1.829000000     1.994000000    -0.613000000
O    -3.145000000     3.622000000    -0.114000000
C    -2.023000000     4.106000000     0.445000000
C    -1.845000000     3.869000000     1.802000000
H    -2.653000000     3.365000000     2.326000000
C    -0.586000000     4.159000000     2.382000000
O    -0.368000000     3.769000000     3.680000000
C     0.359000000     4.905000000     1.640000000
C     1.753000000     5.003000000     2.217000000
H     2.154000000     5.874000000     1.696000000
C     2.557000000     3.675000000     1.849000000
C     3.308000000     3.560000000     0.668000000
H     3.198000000     4.381000000    -0.036000000
H     1.887000000     5.187000000     3.286000000
C     0.208000000     5.205000000     0.284000000
H     1.005000000     5.751000000    -0.214000000
C    -0.959000000     4.746000000    -0.336000000
C    -1.210000000     4.965000000    -1.832000000
H    -0.736000000     5.885000000    -2.179000000
H    -2.265000000     5.167000000    -2.029000000
C    -0.904000000     3.727000000    -2.719000000
C     0.347000000     3.718000000    -3.360000000
H     1.047000000     4.544000000    -3.265000000
C    -1.852000000     2.708000000    -2.853000000
C    -1.550000000     1.689000000    -3.791000000
H    -2.282000000     0.911000000    -3.995000000
C    -0.399000000     1.728000000    -4.527000000
O    -0.180000000     0.614000000    -5.349000000
C     0.579000000    -0.553000000    -4.929000000
C     0.091000000    -1.917000000    -5.349000000
C     0.914000000    -3.044000000    -5.069000000
H     1.964000000    -2.982000000    -4.794000000
C    -1.286000000    -2.018000000    -5.580000000
H    -1.916000000    -1.136000000    -5.657000000
O     2.045000000    -0.429000000    -5.068000000
H     0.261000000    -0.599000000    -3.877000000
C     0.558000000     2.698000000    -4.233000000
C     1.947000000     2.544000000    -4.851000000
H     2.455000000     3.470000000    -5.130000000
H     1.743000000     2.002000000    -5.777000000
C     2.774000000     1.724000000    -3.987000000
C     3.488000000     2.294000000    -2.991000000
H     3.491000000     3.374000000    -2.868000000
C     2.791000000     0.296000000    -4.102000000
C     3.502000000    -0.442000000    -3.147000000
H     3.574000000    -1.526000000    -3.188000000
C     4.087000000     0.167000000    -2.039000000
O     4.576000000    -0.609000000    -1.042000000
C     3.876000000    -0.640000000     0.156000000
C     3.669000000    -2.031000000     0.749000000
C     3.162000000    -3.020000000    -0.038000000
H     2.977000000    -2.802000000    -1.087000000
C     3.932000000    -2.322000000     2.089000000
H     4.457000000    -1.596000000     2.705000000
O     4.530000000     0.206000000     1.088000000
H     2.840000000    -0.294000000     0.028000000
C     4.244000000     1.558000000    -2.034000000
C     4.907000000     2.332000000    -0.893000000
H     5.106000000     3.371000000    -1.161000000
H     5.831000000     1.784000000    -0.699000000
C     4.045000000     2.413000000     0.363000000
C     3.988000000     1.421000000     1.315000000
C     3.303000000     1.547000000     2.558000000
H     3.261000000     0.704000000     3.243000000
C     2.611000000     2.704000000     2.819000000
O     1.804000000     2.689000000     3.949000000
C     0.325000000     2.532000000     3.742000000
H     0.054000000     2.001000000     2.817000000
C    -0.218000000     1.561000000     4.775000000
C    -1.558000000     1.684000000     5.169000000
H    -2.222000000     2.384000000     4.669000000
C     0.528000000     0.399000000     5.151000000
H     1.550000000     0.211000000     4.832000000
C    -0.133000000    -0.490000000     6.065000000
O     0.539000000    -1.578000000     6.505000000
C    -1.398000000    -0.237000000     6.515000000
H    -1.819000000    -0.875000000     7.288000000
C    -2.178000000     0.834000000     6.054000000
O    -3.482000000     0.987000000     6.444000000
C    -4.328000000     1.456000000     5.499000000
C    -4.552000000     0.683000000     4.341000000
H    -4.009000000    -0.247000000     4.198000000
C    -5.166000000     2.506000000     5.800000000
H    -5.067000000     3.034000000     6.745000000
C    -6.173000000     2.883000000     4.918000000
H    -6.800000000     3.751000000     5.106000000
C    -6.437000000     2.087000000     3.737000000
H    -7.259000000     2.333000000     3.069000000
C    -5.601000000     0.998000000     3.494000000
O    -5.889000000     0.169000000     2.459000000
C    -5.307000000     0.222000000     1.247000000
C    -5.332000000    -0.926000000     0.501000000
H    -5.930000000    -1.779000000     0.808000000
C    -4.697000000    -0.940000000    -0.714000000
O    -4.577000000    -2.103000000    -1.416000000
C    -4.749000000    -2.103000000    -2.817000000
C    -3.911000000    -2.753000000    -3.678000000
H    -3.047000000    -3.332000000    -3.364000000
C    -5.868000000    -1.471000000    -3.369000000
H    -6.614000000    -0.928000000    -2.795000000
C    -6.181000000    -1.546000000    -4.742000000
H    -7.100000000    -1.045000000    -5.035000000
C    -5.246000000    -2.134000000    -5.623000000
H    -5.399000000    -2.085000000    -6.698000000
C    -4.152000000    -2.778000000    -5.065000000
O    -3.224000000    -3.365000000    -5.891000000
C    -1.847000000    -3.299000000    -5.673000000
C    -1.060000000    -4.442000000    -5.554000000
H    -1.501000000    -5.434000000    -5.606000000
C     0.301000000    -4.280000000    -5.186000000
O     0.995000000    -5.464000000    -4.956000000
C     1.887000000    -5.551000000    -3.912000000
C     1.548000000    -5.167000000    -2.612000000
H     0.575000000    -4.832000000    -2.261000000
C     3.136000000    -6.139000000    -4.294000000
H     3.312000000    -6.390000000    -5.337000000
C     4.092000000    -6.246000000    -3.292000000
H     5.049000000    -6.636000000    -3.630000000
C     3.825000000    -5.729000000    -1.999000000
H     4.645000000    -5.832000000    -1.292000000
C     2.546000000    -5.314000000    -1.629000000
O     2.244000000    -5.246000000    -0.284000000
C     2.765000000    -4.233000000     0.547000000
C     3.061000000    -4.544000000     1.851000000
H     2.747000000    -5.497000000     2.270000000
C     3.617000000    -3.561000000     2.655000000
O     3.982000000    -3.840000000     4.008000000
C     3.585000000    -3.115000000     5.071000000
C     4.548000000    -2.769000000     5.987000000
H     5.567000000    -3.133000000     5.885000000
C     4.142000000    -1.901000000     7.072000000
H     4.833000000    -1.584000000     7.850000000
C     2.787000000    -1.507000000     7.239000000
H     2.540000000    -0.977000000     8.155000000
C     1.854000000    -1.914000000     6.308000000
C     2.241000000    -2.688000000     5.196000000
H     1.525000000    -3.070000000     4.473000000
C    -1.085000000    -2.069000000    -0.197000000
H    -1.634000000    -2.923000000    -0.585000000
C    -0.426000000    -1.212000000    -1.159000000
H    -0.347000000    -1.447000000    -2.217000000
C     0.293000000    -0.189000000    -0.651000000
H     0.845000000     0.474000000    -1.397000000
C     0.409000000     0.034000000     0.743000000
H     1.022000000     0.861000000     1.093000000
C    -0.344000000    -0.706000000     1.639000000
H    -0.382000000    -0.448000000     2.694000000
C    -1.051000000    -1.830000000     1.181000000
C    -1.795000000    -2.738000000     2.138000000
O    -1.986000000    -2.378000000     3.315000000
O    -2.142000000    -3.839000000     1.806000000
O     0.203000000    -4.712000000     6.850000000
H    -0.461000000    -4.342000000     6.268000000
H     0.910000000    -4.984000000     6.265000000
O    -2.847000000    -4.286000000     8.158000000
H    -3.105000000    -3.419000000     8.471000000
H    -2.416000000    -4.119000000     7.320000000
O    -0.148000000    -8.079000000     0.799000000
H    -0.777000000    -8.250000000     1.500000000
H    -0.091000000    -7.124000000     0.756000000
O    -4.307000000    -7.026000000     5.694000000
H    -4.034000000    -6.864000000     4.791000000
H    -4.662000000    -7.915000000     5.682000000
O    -8.070000000    -3.496000000     6.138000000
H    -7.924000000    -4.437000000     6.239000000
H    -7.193000000    -3.127000000     6.036000000
O    -5.233000000    -6.795000000     1.469000000
H    -4.594000000    -6.268000000     0.989000000
H    -4.748000000    -7.128000000     2.225000000
O     2.128000000    -6.112000000     5.775000000
H     2.993000000    -6.115000000     5.365000000
H     1.815000000    -7.012000000     5.680000000
O    -3.394000000    -7.314000000    -1.911000000
H    -2.933000000    -7.832000000    -2.571000000
H    -4.043000000    -7.916000000    -1.545000000
O    -1.325000000    -8.191000000     3.732000000
H    -1.783000000    -9.031000000     3.729000000
H    -0.678000000    -8.272000000     4.433000000
O    -5.057000000    -5.820000000     7.951000000
H    -4.395000000    -5.153000000     8.136000000
H    -4.711000000    -6.300000000     7.199000000
O    -2.022000000    -3.824000000     5.521000000
H    -1.847000000    -3.275000000     4.757000000
H    -2.765000000    -4.368000000     5.261000000
O    -7.000000000    -4.789000000     1.374000000
H    -6.415000000    -4.217000000     0.877000000
H    -6.570000000    -5.644000000     1.356000000
O    -4.508000000    -4.040000000     0.566000000
H    -4.421000000    -3.640000000    -0.299000000
H    -3.618000000    -4.046000000     0.918000000
O    -1.672000000    -5.216000000    -2.117000000
H    -2.369000000    -5.832000000    -1.894000000
H    -1.076000000    -5.248000000    -1.368000000
O    -2.832000000    -6.100000000     3.206000000
H    -2.172000000    -6.793000000     3.222000000
H    -2.442000000    -5.411000000     2.668000000
O    -5.394000000    -3.093000000     5.916000000
H    -5.156000000    -2.937000000     5.002000000
H    -4.632000000    -2.801000000     6.416000000
O    -7.425000000    -2.136000000     3.029000000
H    -6.521000000    -1.967000000     3.296000000
H    -7.450000000    -3.077000000     2.851000000
O    -4.561000000    -2.881000000     3.397000000
H    -3.623000000    -2.731000000     3.513000000
H    -4.626000000    -3.379000000     2.582000000
O    -0.333000000    -5.345000000     0.436000000
H     0.514000000    -4.900000000     0.445000000
H    -0.895000000    -4.801000000     0.989000000
