215
-1450.54610
C    -4.154000000    -0.138000000    -1.131000000
H    -3.702000000    -0.310000000    -2.105000000
C    -3.879000000     0.976000000    -0.384000000
C    -4.362000000     0.973000000     0.981000000
H    -4.074000000     1.767000000     1.665000000
C    -2.846000000     2.016000000    -0.857000000
O    -3.076000000     2.321000000    -2.206000000
H    -1.793000000     1.709000000    -0.772000000
O    -3.014000000     3.298000000    -0.200000000
C    -1.822000000     3.905000000     0.108000000
C    -1.473000000     3.944000000     1.428000000
H    -2.126000000     3.543000000     2.199000000
C    -0.251000000     4.326000000     1.844000000
O     0.172000000     4.116000000     3.143000000
C     0.701000000     4.797000000     0.950000000
C     2.085000000     5.038000000     1.477000000
H     2.349000000     5.892000000     0.849000000
C     3.018000000     3.833000000     1.420000000
C     3.645000000     3.578000000     0.259000000
H     3.540000000     4.245000000    -0.593000000
H     2.108000000     5.452000000     2.488000000
C     0.336000000     4.837000000    -0.424000000
H     0.978000000     5.317000000    -1.159000000
C    -0.970000000     4.491000000    -0.806000000
C    -1.427000000     4.705000000    -2.259000000
H    -0.914000000     5.574000000    -2.676000000
H    -2.501000000     4.879000000    -2.171000000
C    -1.146000000     3.388000000    -3.015000000
C     0.063000000     3.307000000    -3.677000000
H     0.775000000     4.127000000    -3.641000000
C    -2.047000000     2.372000000    -2.995000000
C    -1.766000000     1.213000000    -3.754000000
H    -2.443000000     0.362000000    -3.746000000
C    -0.551000000     1.164000000    -4.492000000
O    -0.363000000     0.077000000    -5.306000000
C     0.435000000    -1.008000000    -4.681000000
C    -0.119000000    -2.329000000    -5.128000000
C     0.637000000    -3.456000000    -5.024000000
H     1.685000000    -3.364000000    -4.750000000
C    -1.444000000    -2.492000000    -5.389000000
H    -2.113000000    -1.636000000    -5.417000000
O     1.830000000    -0.886000000    -5.068000000
H     0.333000000    -0.972000000    -3.586000000
C     0.352000000     2.173000000    -4.398000000
C     1.788000000     2.165000000    -5.014000000
H     2.173000000     3.187000000    -5.026000000
H     1.758000000     1.775000000    -6.033000000
C     2.632000000     1.294000000    -4.074000000
C     3.387000000     1.931000000    -3.095000000
H     3.524000000     3.007000000    -3.166000000
C     2.554000000    -0.126000000    -4.113000000
C     3.129000000    -0.839000000    -3.116000000
H     3.100000000    -1.926000000    -3.106000000
C     3.873000000    -0.191000000    -2.121000000
O     4.216000000    -1.009000000    -1.132000000
C     3.722000000    -0.624000000     0.225000000
C     3.197000000    -1.917000000     0.925000000
C     2.800000000    -2.979000000     0.201000000
H     2.820000000    -2.921000000    -0.885000000
C     3.094000000    -2.065000000     2.293000000
H     3.432000000    -1.259000000     2.939000000
O     4.758000000     0.132000000     0.966000000
H     2.830000000     0.020000000     0.212000000
C     3.986000000     1.184000000    -2.103000000
C     4.964000000     1.861000000    -1.188000000
H     5.443000000     2.664000000    -1.754000000
H     5.768000000     1.145000000    -1.006000000
C     4.325000000     2.313000000     0.120000000
C     4.378000000     1.431000000     1.189000000
C     3.698000000     1.677000000     2.339000000
H     3.860000000     1.019000000     3.188000000
C     3.041000000     2.865000000     2.473000000
O     2.265000000     3.145000000     3.578000000
C     0.831000000     2.918000000     3.562000000
H     0.585000000     2.140000000     2.824000000
C     0.337000000     2.401000000     4.825000000
C    -1.059000000     2.453000000     5.100000000
H    -1.772000000     2.973000000     4.465000000
C     1.190000000     1.609000000     5.579000000
H     2.246000000     1.594000000     5.318000000
C     0.710000000     0.840000000     6.670000000
O     1.513000000     0.009000000     7.434000000
C    -0.645000000     0.878000000     6.947000000
H    -1.179000000     0.357000000     7.737000000
C    -1.458000000     1.754000000     6.228000000
O    -2.795000000     1.760000000     6.519000000
C    -3.749000000     1.970000000     5.564000000
C    -3.959000000     0.901000000     4.617000000
H    -3.335000000     0.012000000     4.580000000
C    -4.727000000     3.014000000     5.613000000
H    -4.741000000     3.696000000     6.460000000
C    -5.725000000     3.068000000     4.644000000
H    -6.332000000     3.969000000     4.617000000
C    -5.872000000     2.029000000     3.727000000
H    -6.735000000     2.109000000     3.071000000
C    -4.996000000     0.956000000     3.709000000
O    -5.295000000    -0.139000000     2.894000000
C    -5.045000000    -0.122000000     1.581000000
C    -5.334000000    -1.162000000     0.730000000
H    -5.837000000    -2.030000000     1.148000000
C    -4.957000000    -1.142000000    -0.581000000
O    -5.241000000    -2.258000000    -1.336000000
C    -5.403000000    -2.312000000    -2.701000000
C    -4.403000000    -2.954000000    -3.380000000
H    -3.465000000    -3.177000000    -2.877000000
C    -6.504000000    -1.745000000    -3.389000000
H    -7.347000000    -1.335000000    -2.838000000
C    -6.678000000    -2.005000000    -4.735000000
H    -7.535000000    -1.790000000    -5.368000000
C    -5.648000000    -2.725000000    -5.437000000
H    -5.759000000    -2.975000000    -6.489000000
C    -4.478000000    -3.139000000    -4.776000000
O    -3.488000000    -3.835000000    -5.542000000
C    -2.081000000    -3.756000000    -5.334000000
C    -1.295000000    -4.885000000    -5.153000000
H    -1.678000000    -5.902000000    -5.168000000
C     0.056000000    -4.704000000    -4.936000000
O     0.970000000    -5.804000000    -4.776000000
C     1.871000000    -5.645000000    -3.732000000
C     1.364000000    -5.477000000    -2.445000000
H     0.298000000    -5.395000000    -2.246000000
C     3.224000000    -5.598000000    -4.047000000
H     3.625000000    -5.797000000    -5.038000000
C     4.106000000    -5.422000000    -2.980000000
H     5.167000000    -5.284000000    -3.169000000
C     3.598000000    -5.342000000    -1.665000000
H     4.275000000    -5.251000000    -0.819000000
C     2.253000000    -5.374000000    -1.393000000
O     1.778000000    -5.120000000    -0.095000000
C     2.246000000    -4.136000000     0.765000000
C     2.047000000    -4.215000000     2.116000000
H     1.470000000    -5.013000000     2.577000000
C     2.451000000    -3.156000000     2.870000000
O     2.291000000    -3.375000000     4.244000000
C     2.863000000    -2.522000000     5.160000000
C     4.167000000    -2.700000000     5.635000000
H     4.808000000    -3.442000000     5.166000000
C     4.574000000    -1.828000000     6.646000000
H     5.579000000    -1.962000000     7.037000000
C     3.709000000    -0.904000000     7.202000000
H     3.924000000    -0.401000000     8.141000000
C     2.354000000    -0.855000000     6.820000000
C     1.986000000    -1.616000000     5.736000000
H     0.931000000    -1.696000000     5.488000000
C    -1.349000000    -1.938000000     0.185000000
H    -1.816000000    -2.892000000    -0.045000000
C    -0.677000000    -1.290000000    -0.826000000
H    -0.667000000    -1.646000000    -1.853000000
C    -0.011000000    -0.115000000    -0.539000000
H     0.375000000     0.471000000    -1.338000000
C     0.049000000     0.420000000     0.693000000
H     0.550000000     1.350000000     0.950000000
C    -0.749000000    -0.233000000     1.702000000
H    -0.687000000     0.166000000     2.711000000
C    -1.445000000    -1.411000000     1.475000000
C    -2.255000000    -2.092000000     2.570000000
O    -2.128000000    -1.810000000     3.742000000
O    -2.919000000    -3.120000000     2.363000000
O     1.189000000    -4.954000000     6.385000000
H     0.615000000    -4.277000000     6.026000000
H     2.071000000    -4.676000000     6.137000000
O    -2.126000000    -3.141000000     8.008000000
H    -2.694000000    -2.409000000     7.768000000
H    -1.815000000    -3.487000000     7.171000000
O     0.260000000    -7.950000000    -0.848000000
H     0.159000000    -8.684000000    -0.243000000
H    -0.062000000    -7.191000000    -0.361000000
O    -0.791000000    -7.326000000     6.934000000
H    -0.431000000    -6.514000000     6.577000000
H    -0.771000000    -7.940000000     6.200000000
O    -5.658000000    -5.785000000     3.431000000
H    -6.341000000    -6.413000000     3.668000000
H    -5.990000000    -5.358000000     2.641000000
O    -8.677000000    -1.708000000     1.122000000
H    -7.977000000    -2.352000000     1.010000000
H    -9.484000000    -2.212000000     1.020000000
O    -3.585000000    -6.003000000     5.085000000
H    -2.739000000    -5.768000000     4.703000000
H    -4.203000000    -5.937000000     4.358000000
O    -3.435000000    -7.972000000     1.927000000
H    -2.535000000    -7.682000000     2.079000000
H    -3.874000000    -7.207000000     1.556000000
O    -1.198000000    -3.364000000     5.440000000
H    -1.543000000    -2.556000000     5.060000000
H    -1.205000000    -3.991000000     4.717000000
O    -6.786000000    -5.665000000     1.023000000
H    -7.522000000    -5.367000000     0.488000000
H    -7.063000000    -6.519000000     1.356000000
O    -3.716000000    -5.256000000     1.109000000
H    -4.652000000    -5.099000000     0.982000000
H    -3.418000000    -4.511000000     1.632000000
O    -7.772000000     0.621000000    -0.126000000
H    -8.252000000    -0.021000000     0.397000000
H    -6.958000000     0.762000000     0.358000000
O    -2.471000000    -5.143000000    -1.379000000
H    -2.442000000    -5.866000000    -2.005000000
H    -2.777000000    -5.542000000    -0.565000000
O    -1.864000000    -5.323000000     3.383000000
H    -1.280000000    -5.617000000     2.684000000
H    -2.241000000    -4.508000000     3.052000000
O    -5.973000000    -5.383000000     6.333000000
H    -5.106000000    -5.535000000     5.957000000
H    -6.175000000    -4.474000000     6.112000000
O    -7.066000000    -1.347000000     5.163000000
H    -7.283000000    -0.957000000     4.316000000
H    -6.230000000    -1.789000000     5.015000000
O    -3.968000000    -1.315000000     7.054000000
H    -3.779000000    -1.870000000     6.297000000
H    -4.623000000    -0.693000000     6.737000000
O    -4.666000000    -2.770000000     4.567000000
H    -3.831000000    -2.416000000     4.260000000
H    -4.728000000    -3.631000000     4.154000000
O    -1.008000000    -5.944000000     0.871000000
H    -1.906000000    -5.648000000     0.723000000
H    -0.463000000    -5.275000000     0.458000000
