215
-1454.41135
C    -4.710000000     0.896000000    -2.005000000
H    -4.192000000     0.810000000    -2.957000000
C    -4.045000000     1.632000000    -1.010000000
C    -4.642000000     1.661000000     0.279000000
H    -4.247000000     2.263000000     1.093000000
C    -2.784000000     2.445000000    -1.355000000
O    -2.737000000     2.859000000    -2.763000000
H    -1.918000000     1.833000000    -1.064000000
O    -2.758000000     3.509000000    -0.456000000
C    -1.590000000     3.983000000     0.009000000
C    -1.375000000     3.831000000     1.384000000
H    -2.212000000     3.561000000     2.023000000
C    -0.236000000     4.205000000     2.055000000
O    -0.109000000     3.869000000     3.391000000
C     0.787000000     4.631000000     1.297000000
C     2.140000000     4.909000000     1.871000000
H     2.642000000     5.631000000     1.225000000
C     3.055000000     3.656000000     1.941000000
C     3.739000000     3.309000000     0.759000000
H     3.785000000     4.011000000    -0.069000000
H     2.009000000     5.340000000     2.866000000
C     0.624000000     4.917000000    -0.108000000
H     1.419000000     5.263000000    -0.764000000
C    -0.577000000     4.540000000    -0.753000000
C    -0.804000000     4.854000000    -2.232000000
H    -0.282000000     5.743000000    -2.590000000
H    -1.835000000     5.214000000    -2.267000000
C    -0.521000000     3.662000000    -3.165000000
C     0.717000000     3.430000000    -3.744000000
H     1.550000000     4.087000000    -3.510000000
C    -1.496000000     2.720000000    -3.333000000
C    -1.284000000     1.597000000    -4.080000000
H    -2.066000000     0.880000000    -4.318000000
C    -0.070000000     1.396000000    -4.758000000
O     0.200000000     0.197000000    -5.273000000
C     0.740000000    -0.832000000    -4.365000000
C    -0.104000000    -2.076000000    -4.417000000
C     0.496000000    -3.194000000    -3.926000000
H     1.501000000    -3.260000000    -3.517000000
C    -1.401000000    -2.089000000    -4.875000000
H    -1.791000000    -1.169000000    -5.303000000
O     2.171000000    -1.053000000    -4.533000000
H     0.533000000    -0.482000000    -3.343000000
C     1.011000000     2.286000000    -4.441000000
C     2.435000000     1.903000000    -4.794000000
H     2.949000000     2.861000000    -4.897000000
H     2.365000000     1.495000000    -5.805000000
C     3.132000000     1.051000000    -3.720000000
C     3.916000000     1.652000000    -2.789000000
H     4.150000000     2.707000000    -2.903000000
C     2.964000000    -0.342000000    -3.745000000
C     3.646000000    -1.014000000    -2.706000000
H     3.545000000    -2.083000000    -2.535000000
C     4.435000000    -0.416000000    -1.755000000
O     4.775000000    -1.075000000    -0.619000000
C     4.044000000    -0.950000000     0.552000000
C     3.652000000    -2.321000000     1.172000000
C     3.800000000    -3.502000000     0.439000000
H     4.240000000    -3.517000000    -0.555000000
C     3.121000000    -2.396000000     2.516000000
H     2.938000000    -1.479000000     3.072000000
O     4.800000000    -0.146000000     1.571000000
H     3.152000000    -0.416000000     0.192000000
C     4.580000000     0.971000000    -1.743000000
C     5.251000000     1.788000000    -0.553000000
H     5.624000000     2.721000000    -0.980000000
H     6.046000000     1.174000000    -0.125000000
C     4.390000000     2.078000000     0.677000000
C     4.264000000     1.145000000     1.664000000
C     3.463000000     1.442000000     2.777000000
H     3.246000000     0.772000000     3.605000000
C     2.868000000     2.720000000     2.967000000
O     1.926000000     2.897000000     3.984000000
C     0.548000000     2.659000000     3.740000000
H     0.452000000     2.077000000     2.811000000
C    -0.143000000     1.876000000     4.909000000
C    -1.516000000     1.715000000     4.865000000
H    -1.998000000     2.085000000     3.964000000
C     0.582000000     1.150000000     5.868000000
H     1.667000000     1.158000000     5.918000000
C    -0.079000000     0.346000000     6.764000000
O     0.716000000    -0.471000000     7.591000000
C    -1.448000000     0.327000000     6.750000000
H    -1.874000000    -0.356000000     7.481000000
C    -2.201000000     1.003000000     5.847000000
O    -3.596000000     0.820000000     5.835000000
C    -4.465000000     1.519000000     5.035000000
C    -5.010000000     0.814000000     3.975000000
H    -4.751000000    -0.238000000     3.883000000
C    -4.680000000     2.875000000     5.189000000
H    -4.228000000     3.460000000     5.986000000
C    -5.512000000     3.529000000     4.249000000
H    -5.697000000     4.600000000     4.256000000
C    -6.016000000     2.797000000     3.143000000
H    -6.542000000     3.313000000     2.343000000
C    -5.762000000     1.419000000     3.010000000
O    -6.196000000     0.679000000     1.868000000
C    -5.727000000     0.821000000     0.638000000
C    -6.299000000     0.055000000    -0.394000000
H    -7.155000000    -0.572000000    -0.161000000
C    -5.830000000     0.096000000    -1.729000000
O    -6.334000000    -0.787000000    -2.692000000
C    -5.763000000    -1.028000000    -3.856000000
C    -4.845000000    -2.027000000    -4.024000000
H    -4.545000000    -2.560000000    -3.125000000
C    -6.307000000    -0.521000000    -5.047000000
H    -7.150000000     0.165000000    -5.011000000
C    -5.847000000    -0.914000000    -6.306000000
H    -6.360000000    -0.495000000    -7.168000000
C    -4.785000000    -1.714000000    -6.372000000
H    -4.338000000    -1.868000000    -7.351000000
C    -4.319000000    -2.378000000    -5.235000000
O    -3.405000000    -3.403000000    -5.343000000
C    -2.114000000    -3.264000000    -4.917000000
C    -1.547000000    -4.377000000    -4.332000000
H    -2.064000000    -5.329000000    -4.258000000
C    -0.274000000    -4.355000000    -3.763000000
O     0.119000000    -5.441000000    -3.030000000
C     1.387000000    -5.769000000    -2.668000000
C     1.823000000    -5.530000000    -1.379000000
H     1.257000000    -4.907000000    -0.692000000
C     2.088000000    -6.591000000    -3.584000000
H     1.716000000    -6.856000000    -4.570000000
C     3.292000000    -7.139000000    -3.216000000
H     3.776000000    -7.879000000    -3.848000000
C     3.777000000    -6.793000000    -2.000000000
H     4.753000000    -7.096000000    -1.628000000
C     3.057000000    -5.992000000    -1.032000000
O     3.580000000    -5.833000000     0.208000000
C     3.404000000    -4.694000000     0.996000000
C     3.002000000    -4.805000000     2.302000000
H     2.789000000    -5.793000000     2.701000000
C     2.738000000    -3.632000000     3.040000000
O     2.099000000    -3.765000000     4.223000000
C     2.311000000    -3.031000000     5.338000000
C     3.625000000    -2.957000000     5.888000000
H     4.387000000    -3.574000000     5.418000000
C     3.944000000    -2.155000000     6.965000000
H     4.951000000    -2.179000000     7.375000000
C     3.023000000    -1.312000000     7.568000000
H     3.240000000    -0.660000000     8.411000000
C     1.718000000    -1.339000000     7.019000000
C     1.412000000    -2.124000000     5.897000000
H     0.388000000    -2.104000000     5.533000000
C     0.026000000    -2.285000000     0.515000000
H     0.151000000    -3.362000000     0.427000000
C     0.680000000    -1.514000000    -0.467000000
H     1.202000000    -1.961000000    -1.309000000
C     0.572000000    -0.130000000    -0.477000000
H     1.036000000     0.495000000    -1.298000000
C    -0.131000000     0.485000000     0.536000000
H    -0.262000000     1.564000000     0.526000000
C    -0.657000000    -0.303000000     1.621000000
H    -1.217000000     0.223000000     2.390000000
C    -0.619000000    -1.681000000     1.625000000
C    -1.276000000    -2.447000000     2.733000000
O    -2.152000000    -1.936000000     3.464000000
O    -1.081000000    -3.635000000     2.830000000
O    -1.262000000    -4.773000000     5.368000000
H    -1.594000000    -5.646000000     5.160000000
H    -1.381000000    -4.273000000     4.560000000
O    -1.932000000    -3.914000000     8.988000000
H    -2.699000000    -4.280000000     8.548000000
H    -2.256000000    -3.123000000     9.417000000
O    -3.668000000    -4.742000000     2.549000000
H    -2.829000000    -4.331000000     2.761000000
H    -3.430000000    -5.572000000     2.136000000
O    -5.112000000    -6.202000000    -0.469000000
H    -5.616000000    -6.384000000    -1.262000000
H    -4.850000000    -5.285000000    -0.557000000
O    -4.492000000    -6.288000000     5.212000000
H    -5.434000000    -6.172000000     5.086000000
H    -4.140000000    -6.368000000     4.326000000
O    -3.261000000    -2.512000000     5.950000000
H    -2.851000000    -3.376000000     5.981000000
H    -2.845000000    -2.076000000     5.205000000
O    -3.881000000    -7.442000000     1.624000000
H    -3.413000000    -8.265000000     1.484000000
H    -4.119000000    -7.148000000     0.745000000
O     0.034000000    -8.015000000     0.240000000
H     0.575000000    -8.746000000     0.539000000
H    -0.140000000    -7.506000000     1.032000000
O    -1.357000000    -7.639000000     4.954000000
H    -2.105000000    -8.057000000     5.382000000
H    -0.600000000    -7.921000000     5.466000000
O     0.172000000    -4.716000000     7.655000000
H    -0.556000000    -4.415000000     8.198000000
H    -0.184000000    -4.735000000     6.766000000
O    -5.099000000    -3.079000000    -0.388000000
H    -4.932000000    -2.503000000     0.358000000
H    -5.963000000    -2.814000000    -0.706000000
O    -0.606000000    -6.360000000     2.311000000
H    -1.201000000    -6.756000000     2.947000000
H    -0.618000000    -5.426000000     2.521000000
O    -6.021000000    -2.816000000     6.135000000
H    -6.336000000    -3.266000000     5.352000000
H    -5.107000000    -2.608000000     5.941000000
O    -7.139000000    -5.175000000     1.004000000
H    -6.270000000    -5.513000000     0.786000000
H    -7.341000000    -4.563000000     0.297000000
O    -6.192000000    -3.920000000     3.382000000
H    -6.608000000    -4.203000000     2.568000000
H    -5.253000000    -3.958000000     3.197000000
O    -2.115000000    -7.080000000    -1.142000000
H    -2.285000000    -6.140000000    -1.200000000
H    -1.335000000    -7.149000000    -0.592000000
O    -3.692000000    -5.641000000     7.895000000
H    -4.528000000    -5.731000000     8.353000000
H    -3.889000000    -5.878000000     6.989000000
O    -4.174000000    -1.921000000     1.641000000
H    -3.781000000    -2.696000000     2.042000000
H    -3.863000000    -1.191000000     2.175000000
O    -2.643000000    -4.323000000    -0.805000000
H    -3.501000000    -3.944000000    -0.613000000
H    -2.020000000    -3.634000000    -0.573000000
