215
-1461.64533
C    -4.120000000     2.104000000    -3.039000000
H    -3.719000000     2.360000000    -4.017000000
C    -3.450000000     2.536000000    -1.912000000
C    -3.961000000     2.197000000    -0.681000000
H    -3.315000000     2.424000000     0.163000000
C    -2.040000000     3.194000000    -1.930000000
O    -1.678000000     3.515000000    -3.259000000
H    -1.438000000     2.372000000    -1.516000000
O    -1.943000000     4.328000000    -0.982000000
C    -0.817000000     4.472000000    -0.190000000
C    -0.972000000     4.307000000     1.154000000
H    -1.911000000     4.211000000     1.693000000
C     0.175000000     4.235000000     1.989000000
O    -0.038000000     3.834000000     3.294000000
C     1.395000000     4.352000000     1.401000000
C     2.699000000     4.341000000     2.246000000
H     3.351000000     4.982000000     1.649000000
C     3.325000000     2.970000000     2.372000000
C     4.148000000     2.459000000     1.386000000
H     4.529000000     3.138000000     0.627000000
H     2.489000000     4.773000000     3.226000000
C     1.511000000     4.566000000     0.030000000
H     2.528000000     4.738000000    -0.313000000
C     0.392000000     4.652000000    -0.786000000
C     0.578000000     5.090000000    -2.267000000
H     1.475000000     5.710000000    -2.213000000
H    -0.317000000     5.605000000    -2.620000000
C     0.717000000     3.971000000    -3.195000000
C     1.971000000     3.464000000    -3.526000000
H     2.807000000     4.025000000    -3.117000000
C    -0.439000000     3.249000000    -3.625000000
C    -0.250000000     2.051000000    -4.297000000
H    -1.146000000     1.468000000    -4.494000000
C     0.992000000     1.462000000    -4.529000000
O     0.931000000     0.133000000    -4.982000000
C     1.002000000    -0.903000000    -4.025000000
C     0.101000000    -2.070000000    -4.253000000
C     0.374000000    -3.334000000    -3.647000000
H     1.302000000    -3.552000000    -3.125000000
C    -1.145000000    -1.884000000    -4.837000000
H    -1.509000000    -0.881000000    -5.048000000
O     2.399000000    -1.276000000    -3.949000000
H     0.642000000    -0.475000000    -3.078000000
C     2.122000000     2.174000000    -4.121000000
C     3.437000000     1.473000000    -4.247000000
H     4.298000000     2.137000000    -4.351000000
H     3.460000000     0.855000000    -5.147000000
C     3.736000000     0.617000000    -2.997000000
C     4.499000000     1.044000000    -1.984000000
H     4.882000000     2.061000000    -1.958000000
C     3.158000000    -0.698000000    -2.931000000
C     3.318000000    -1.475000000    -1.809000000
H     2.858000000    -2.458000000    -1.759000000
C     4.133000000    -1.108000000    -0.763000000
O     4.284000000    -1.967000000     0.300000000
C     3.465000000    -1.807000000     1.506000000
C     2.841000000    -3.059000000     2.133000000
C     2.556000000    -4.155000000     1.356000000
H     2.782000000    -4.062000000     0.296000000
C     2.671000000    -3.283000000     3.526000000
H     2.943000000    -2.420000000     4.128000000
O     4.252000000    -1.035000000     2.416000000
H     2.592000000    -1.242000000     1.147000000
C     4.745000000     0.173000000    -0.834000000
C     5.556000000     0.651000000     0.347000000
H     6.193000000     1.472000000     0.012000000
H     6.111000000    -0.230000000     0.677000000
C     4.541000000     1.151000000     1.408000000
C     4.046000000     0.318000000     2.427000000
C     3.044000000     0.744000000     3.343000000
H     2.527000000     0.072000000     4.023000000
C     2.712000000     2.081000000     3.322000000
O     1.665000000     2.375000000     4.129000000
C     0.417000000     2.441000000     3.497000000
H     0.369000000     2.019000000     2.482000000
C    -0.672000000     1.662000000     4.305000000
C    -2.030000000     1.985000000     4.344000000
H    -2.363000000     2.645000000     3.548000000
C    -0.204000000     0.564000000     5.087000000
H     0.774000000     0.124000000     4.907000000
C    -1.138000000    -0.072000000     5.986000000
O    -0.786000000    -1.110000000     6.777000000
C    -2.462000000     0.375000000     6.089000000
H    -3.242000000    -0.030000000     6.728000000
C    -2.930000000     1.366000000     5.201000000
O    -4.234000000     1.774000000     5.213000000
C    -4.855000000     2.306000000     4.092000000
C    -5.031000000     1.561000000     2.890000000
H    -4.825000000     0.494000000     2.896000000
C    -5.063000000     3.728000000     4.080000000
H    -4.834000000     4.338000000     4.950000000
C    -5.637000000     4.262000000     2.911000000
H    -5.853000000     5.326000000     2.849000000
C    -5.995000000     3.511000000     1.800000000
H    -6.462000000     3.914000000     0.905000000
C    -5.634000000     2.161000000     1.761000000
O    -5.843000000     1.367000000     0.607000000
C    -5.237000000     1.551000000    -0.588000000
C    -5.941000000     1.139000000    -1.741000000
H    -6.854000000     0.550000000    -1.710000000
C    -5.255000000     1.333000000    -2.987000000
O    -5.895000000     0.874000000    -4.106000000
C    -5.396000000     0.097000000    -5.098000000
C    -4.603000000    -1.016000000    -4.741000000
H    -4.411000000    -1.363000000    -3.729000000
C    -5.736000000     0.376000000    -6.426000000
H    -6.466000000     1.110000000    -6.758000000
C    -5.133000000    -0.433000000    -7.413000000
H    -5.447000000    -0.378000000    -8.452000000
C    -4.174000000    -1.409000000    -7.092000000
H    -3.644000000    -2.022000000    -7.817000000
C    -3.997000000    -1.725000000    -5.795000000
O    -3.295000000    -2.845000000    -5.452000000
C    -2.029000000    -2.992000000    -4.907000000
C    -1.716000000    -4.247000000    -4.488000000
H    -2.508000000    -4.991000000    -4.485000000
C    -0.482000000    -4.431000000    -3.883000000
O    -0.168000000    -5.663000000    -3.324000000
C     0.892000000    -5.992000000    -2.528000000
C     0.753000000    -5.904000000    -1.136000000
H    -0.151000000    -5.462000000    -0.724000000
C     2.093000000    -6.468000000    -3.061000000
H     2.210000000    -6.505000000    -4.141000000
C     3.077000000    -6.911000000    -2.155000000
H     3.946000000    -7.377000000    -2.614000000
C     2.833000000    -7.046000000    -0.789000000
H     3.605000000    -7.580000000    -0.241000000
C     1.715000000    -6.454000000    -0.276000000
O     1.647000000    -6.419000000     1.075000000
C     1.982000000    -5.334000000     1.871000000
C     1.671000000    -5.456000000     3.214000000
H     1.272000000    -6.401000000     3.573000000
C     2.021000000    -4.357000000     4.015000000
O     1.986000000    -4.455000000     5.374000000
C     1.857000000    -3.386000000     6.243000000
C     2.921000000    -2.820000000     6.951000000
H     3.853000000    -3.363000000     6.810000000
C     2.727000000    -1.607000000     7.666000000
H     3.530000000    -1.067000000     8.161000000
C     1.439000000    -1.105000000     7.633000000
H     1.163000000    -0.223000000     8.205000000
C     0.439000000    -1.647000000     6.816000000
C     0.605000000    -2.817000000     6.137000000
H    -0.195000000    -3.326000000     5.605000000
C    -0.601000000    -2.603000000     0.922000000
H    -0.345000000    -3.657000000     0.846000000
C     0.048000000    -1.715000000     0.162000000
H     0.767000000    -2.049000000    -0.581000000
C    -0.190000000    -0.333000000     0.315000000
H     0.301000000     0.316000000    -0.311000000
C    -1.036000000     0.065000000     1.302000000
H    -1.338000000     1.095000000     1.476000000
C    -1.639000000    -0.863000000     2.154000000
H    -2.216000000    -0.412000000     2.956000000
C    -1.444000000    -2.271000000     2.006000000
C    -2.098000000    -3.309000000     2.899000000
O    -3.077000000    -2.970000000     3.568000000
O    -1.701000000    -4.479000000     2.989000000
O    -2.999000000    -2.790000000     6.247000000
H    -2.718000000    -3.195000000     5.427000000
H    -2.322000000    -2.141000000     6.438000000
O    -0.152000000    -5.248000000     8.445000000
H    -0.592000000    -5.558000000     9.237000000
H    -0.716000000    -4.549000000     8.115000000
O    -4.383000000    -5.459000000     3.121000000
H    -4.992000000    -4.936000000     3.641000000
H    -3.626000000    -4.886000000     2.991000000
O    -6.171000000    -0.988000000     5.088000000
H    -5.979000000    -1.436000000     4.264000000
H    -6.464000000    -0.116000000     4.823000000
O    -5.499000000    -2.606000000     7.326000000
H    -4.671000000    -2.808000000     6.890000000
H    -6.025000000    -2.174000000     6.653000000
O    -6.955000000    -3.916000000     1.072000000
H    -6.727000000    -3.797000000     0.150000000
H    -7.411000000    -4.757000000     1.098000000
O    -5.459000000    -7.116000000     1.280000000
H    -5.045000000    -7.958000000     1.469000000
H    -5.121000000    -6.525000000     1.953000000
O    -5.527000000    -2.192000000     2.679000000
H    -5.746000000    -2.902000000     2.077000000
H    -4.683000000    -2.446000000     3.053000000
O    -3.161000000    -8.416000000     2.608000000
H    -2.659000000    -8.203000000     3.395000000
H    -3.168000000    -7.604000000     2.101000000
O    -0.110000000    -7.244000000     5.615000000
H    -0.059000000    -7.263000000     6.570000000
H    -0.972000000    -6.874000000     5.428000000
O    -5.940000000    -5.293000000     5.764000000
H    -5.472000000    -6.070000000     6.070000000
H    -5.848000000    -4.662000000     6.478000000
O    -2.523000000    -3.924000000     8.650000000
H    -2.648000000    -3.521000000     7.791000000
H    -3.277000000    -3.634000000     9.163000000
O    -2.878000000    -1.971000000    -1.631000000
H    -2.458000000    -2.668000000    -2.135000000
H    -2.179000000    -1.620000000    -1.079000000
O    -0.300000000    -8.524000000     1.399000000
H     0.382000000    -8.031000000     0.943000000
H    -1.111000000    -8.058000000     1.193000000
O    -2.410000000    -5.834000000     5.246000000
H    -2.165000000    -5.212000000     4.560000000
H    -3.367000000    -5.805000000     5.263000000
O    -8.389000000    -1.593000000     1.932000000
H    -8.554000000    -2.437000000     1.512000000
H    -7.451000000    -1.601000000     2.126000000
O    -5.251000000    -2.861000000    -0.996000000
H    -4.501000000    -2.347000000    -1.296000000
H    -6.013000000    -2.332000000    -1.232000000
O    -1.977000000    -6.491000000     1.243000000
H    -2.555000000    -6.144000000     0.564000000
H    -1.869000000    -5.767000000     1.860000000
O    -3.546000000    -5.346000000    -0.662000000
H    -3.984000000    -4.508000000    -0.510000000
H    -4.238000000    -6.000000000    -0.563000000
