215
-1467.32867
C    -4.607000000     0.602000000    -1.628000000
H    -4.427000000     0.673000000    -2.698000000
C    -4.150000000     1.488000000    -0.683000000
C    -4.608000000     1.323000000     0.638000000
H    -4.379000000     2.071000000     1.392000000
C    -3.035000000     2.453000000    -1.046000000
O    -3.039000000     2.750000000    -2.452000000
H    -2.063000000     1.988000000    -0.823000000
O    -3.186000000     3.704000000    -0.241000000
C    -2.048000000     4.149000000     0.370000000
C    -1.832000000     3.745000000     1.693000000
H    -2.601000000     3.188000000     2.222000000
C    -0.592000000     4.060000000     2.258000000
O    -0.366000000     3.547000000     3.533000000
C     0.389000000     4.656000000     1.509000000
C     1.831000000     4.855000000     2.029000000
H     2.368000000     5.624000000     1.469000000
C     2.636000000     3.573000000     1.886000000
C     3.430000000     3.391000000     0.697000000
H     3.434000000     4.151000000    -0.079000000
H     1.882000000     5.159000000     3.077000000
C     0.200000000     4.975000000     0.179000000
H     0.990000000     5.468000000    -0.383000000
C    -1.060000000     4.688000000    -0.403000000
C    -1.254000000     5.023000000    -1.881000000
H    -0.519000000     5.799000000    -2.104000000
H    -2.234000000     5.447000000    -2.107000000
C    -0.907000000     3.844000000    -2.773000000
C     0.404000000     3.780000000    -3.344000000
H     1.090000000     4.588000000    -3.101000000
C    -1.811000000     2.811000000    -3.006000000
C    -1.443000000     1.791000000    -3.800000000
H    -2.160000000     1.007000000    -4.032000000
C    -0.237000000     1.701000000    -4.430000000
O     0.059000000     0.548000000    -5.100000000
C     0.543000000    -0.613000000    -4.411000000
C    -0.178000000    -1.870000000    -4.834000000
C     0.477000000    -3.070000000    -4.616000000
H     1.375000000    -3.047000000    -4.003000000
C    -1.404000000    -1.928000000    -5.458000000
H    -1.953000000    -1.048000000    -5.784000000
O     1.990000000    -0.592000000    -4.640000000
H     0.264000000    -0.587000000    -3.347000000
C     0.680000000     2.680000000    -4.130000000
C     2.086000000     2.475000000    -4.546000000
H     2.615000000     3.417000000    -4.699000000
H     2.133000000     1.988000000    -5.523000000
C     2.838000000     1.498000000    -3.629000000
C     3.559000000     2.034000000    -2.586000000
H     3.747000000     3.104000000    -2.632000000
C     2.838000000     0.110000000    -3.843000000
C     3.436000000    -0.686000000    -2.819000000
H     3.307000000    -1.761000000    -2.724000000
C     4.205000000    -0.079000000    -1.770000000
O     4.669000000    -0.920000000    -0.746000000
C     3.900000000    -0.909000000     0.485000000
C     3.745000000    -2.301000000     1.006000000
C     3.489000000    -3.379000000     0.164000000
H     3.503000000    -3.143000000    -0.897000000
C     3.558000000    -2.546000000     2.304000000
H     3.812000000    -1.792000000     3.045000000
O     4.558000000    -0.098000000     1.442000000
H     2.904000000    -0.487000000     0.281000000
C     4.304000000     1.266000000    -1.695000000
C     5.070000000     2.014000000    -0.585000000
H     5.315000000     3.005000000    -0.974000000
H     6.044000000     1.585000000    -0.341000000
C     4.156000000     2.192000000     0.625000000
C     4.091000000     1.218000000     1.645000000
C     3.346000000     1.433000000     2.738000000
H     3.192000000     0.659000000     3.486000000
C     2.620000000     2.619000000     2.901000000
O     1.716000000     2.769000000     3.968000000
C     0.399000000     2.351000000     3.792000000
H     0.340000000     1.669000000     2.930000000
C    -0.105000000     1.478000000     4.961000000
C    -1.492000000     1.278000000     5.051000000
H    -2.153000000     1.850000000     4.404000000
C     0.749000000     0.731000000     5.762000000
H     1.830000000     0.808000000     5.669000000
C     0.190000000    -0.156000000     6.671000000
O     0.987000000    -1.022000000     7.368000000
C    -1.119000000    -0.298000000     6.798000000
H    -1.486000000    -0.893000000     7.631000000
C    -2.040000000     0.439000000     6.006000000
O    -3.396000000     0.310000000     6.241000000
C    -4.258000000     0.886000000     5.325000000
C    -4.761000000     0.244000000     4.184000000
H    -4.408000000    -0.750000000     3.922000000
C    -4.747000000     2.189000000     5.623000000
H    -4.405000000     2.617000000     6.562000000
C    -5.618000000     2.872000000     4.764000000
H    -6.114000000     3.798000000     5.042000000
C    -5.984000000     2.224000000     3.580000000
H    -6.742000000     2.621000000     2.909000000
C    -5.520000000     0.981000000     3.284000000
O    -6.079000000     0.234000000     2.255000000
C    -5.546000000     0.356000000     1.003000000
C    -5.915000000    -0.551000000     0.034000000
H    -6.607000000    -1.324000000     0.359000000
C    -5.377000000    -0.434000000    -1.249000000
O    -5.500000000    -1.501000000    -2.168000000
C    -5.350000000    -1.491000000    -3.559000000
C    -4.457000000    -2.348000000    -4.128000000
H    -3.953000000    -3.082000000    -3.504000000
C    -6.127000000    -0.672000000    -4.410000000
H    -6.886000000    -0.014000000    -3.995000000
C    -5.995000000    -0.709000000    -5.823000000
H    -6.609000000    -0.069000000    -6.452000000
C    -5.023000000    -1.571000000    -6.350000000
H    -4.833000000    -1.506000000    -7.418000000
C    -4.301000000    -2.376000000    -5.478000000
O    -3.355000000    -3.192000000    -6.003000000
C    -2.011000000    -3.177000000    -5.618000000
C    -1.302000000    -4.389000000    -5.482000000
H    -1.925000000    -5.280000000    -5.474000000
C    -0.045000000    -4.312000000    -4.927000000
O     0.471000000    -5.481000000    -4.276000000
C     1.706000000    -5.418000000    -3.669000000
C     1.785000000    -5.524000000    -2.272000000
H     0.829000000    -5.614000000    -1.761000000
C     2.898000000    -5.500000000    -4.365000000
H     2.887000000    -5.514000000    -5.452000000
C     4.156000000    -5.601000000    -3.707000000
H     5.072000000    -5.703000000    -4.283000000
C     4.174000000    -5.577000000    -2.301000000
H     5.097000000    -5.573000000    -1.728000000
C     3.002000000    -5.631000000    -1.613000000
O     2.940000000    -5.686000000    -0.271000000
C     3.273000000    -4.649000000     0.594000000
C     3.107000000    -4.883000000     1.980000000
H     2.805000000    -5.900000000     2.215000000
C     3.197000000    -3.809000000     2.872000000
O     2.853000000    -4.056000000     4.226000000
C     3.071000000    -3.125000000     5.201000000
C     4.302000000    -2.923000000     5.820000000
H     5.166000000    -3.477000000     5.460000000
C     4.423000000    -2.096000000     6.855000000
H     5.408000000    -2.017000000     7.308000000
C     3.346000000    -1.383000000     7.347000000
H     3.359000000    -0.754000000     8.234000000
C     2.105000000    -1.565000000     6.748000000
C     1.912000000    -2.457000000     5.715000000
H     0.943000000    -2.721000000     5.299000000
C    -0.085000000    -2.575000000     0.671000000
H     0.196000000    -3.607000000     0.481000000
C     0.206000000    -1.677000000    -0.354000000
H     0.704000000    -2.051000000    -1.245000000
C    -0.138000000    -0.349000000    -0.207000000
H     0.245000000     0.386000000    -0.913000000
C    -0.971000000     0.001000000     0.891000000
H    -1.220000000     1.053000000     1.003000000
C    -1.393000000    -0.890000000     1.837000000
H    -2.099000000    -0.634000000     2.623000000
C    -0.952000000    -2.264000000     1.745000000
C    -1.493000000    -3.321000000     2.633000000
O    -2.364000000    -3.030000000     3.452000000
O    -1.160000000    -4.520000000     2.406000000
O    -2.464000000    -6.061000000     4.602000000
H    -2.292000000    -5.170000000     4.905000000
H    -2.601000000    -5.971000000     3.659000000
O    -1.901000000    -3.447000000     7.536000000
H    -2.484000000    -3.285000000     8.278000000
H    -2.361000000    -3.075000000     6.784000000
O     1.091000000    -8.462000000     0.266000000
H     1.199000000    -9.118000000     0.955000000
H     0.934000000    -7.644000000     0.738000000
O    -5.873000000    -7.875000000     3.436000000
H    -5.920000000    -7.532000000     2.544000000
H    -5.007000000    -8.280000000     3.492000000
O    -5.805000000    -6.119000000     1.058000000
H    -6.144000000    -5.759000000     0.239000000
H    -5.256000000    -5.421000000     1.417000000
O     1.153000000    -6.460000000     5.184000000
H     0.726000000    -6.242000000     6.013000000
H     2.088000000    -6.447000000     5.386000000
O    -5.788000000    -5.436000000     4.674000000
H    -6.091000000    -5.755000000     5.524000000
H    -5.630000000    -6.230000000     4.163000000
O    -4.053000000    -3.465000000     5.356000000
H    -4.517000000    -4.195000000     4.946000000
H    -3.397000000    -3.204000000     4.710000000
O    -3.481000000    -8.694000000     2.290000000
H    -2.638000000    -8.783000000     2.735000000
H    -3.365000000    -9.160000000     1.462000000
O    -0.667000000    -5.985000000     7.203000000
H    -0.922000000    -5.100000000     7.462000000
H    -1.229000000    -6.188000000     6.455000000
O    -2.064000000    -8.674000000     5.475000000
H    -2.091000000    -7.736000000     5.288000000
H    -2.859000000    -8.842000000     5.980000000
O    -7.430000000    -3.995000000     3.311000000
H    -6.583000000    -3.615000000     3.079000000
H    -7.213000000    -4.744000000     3.866000000
O    -4.198000000    -3.672000000    -0.353000000
H    -4.159000000    -2.826000000    -0.799000000
H    -4.799000000    -4.194000000    -0.885000000
O     0.139000000    -6.705000000     2.532000000
H     0.286000000    -6.946000000     3.446000000
H    -0.377000000    -5.900000000     2.576000000
O    -5.291000000    -1.482000000     6.950000000
H    -4.864000000    -2.268000000     6.610000000
H    -4.593000000    -0.828000000     6.987000000
O    -7.314000000    -1.764000000     5.320000000
H    -6.900000000    -2.355000000     4.691000000
H    -6.607000000    -1.514000000     5.915000000
O    -1.342000000    -8.347000000    -1.381000000
H    -0.572000000    -8.563000000    -0.855000000
H    -1.656000000    -7.519000000    -1.018000000
O    -4.799000000    -3.004000000     2.488000000
H    -4.657000000    -3.313000000     1.593000000
H    -3.918000000    -2.843000000     2.828000000
O    -2.242000000    -5.803000000     0.053000000
H    -2.856000000    -5.075000000    -0.043000000
H    -1.744000000    -5.594000000     0.843000000
