215
-1459.03818
C    -4.805000000     1.707000000    -1.497000000
H    -4.504000000     1.430000000    -2.504000000
C    -3.906000000     2.568000000    -0.769000000
C    -4.292000000     2.896000000     0.525000000
H    -3.559000000     3.414000000     1.138000000
C    -2.465000000     2.974000000    -1.272000000
O    -2.411000000     3.021000000    -2.706000000
H    -1.715000000     2.257000000    -0.905000000
O    -1.977000000     4.280000000    -0.842000000
C    -0.672000000     4.440000000    -0.453000000
C    -0.456000000     4.246000000     0.933000000
H    -1.296000000     3.894000000     1.527000000
C     0.805000000     4.371000000     1.426000000
O     1.063000000     4.057000000     2.731000000
C     1.878000000     4.593000000     0.581000000
C     3.378000000     4.422000000     0.930000000
H     4.025000000     4.892000000     0.186000000
C     3.612000000     2.890000000     0.905000000
C     4.268000000     2.328000000    -0.205000000
H     4.443000000     2.897000000    -1.114000000
H     3.570000000     4.779000000     1.944000000
C     1.675000000     4.677000000    -0.820000000
H     2.514000000     4.851000000    -1.488000000
C     0.363000000     4.595000000    -1.317000000
C     0.041000000     4.721000000    -2.769000000
H     0.880000000     5.278000000    -3.191000000
H    -0.918000000     5.244000000    -2.798000000
C    -0.130000000     3.357000000    -3.437000000
C     0.942000000     2.727000000    -4.075000000
H     1.923000000     3.194000000    -4.083000000
C    -1.303000000     2.600000000    -3.308000000
C    -1.474000000     1.346000000    -3.844000000
H    -2.441000000     0.853000000    -3.787000000
C    -0.448000000     0.782000000    -4.552000000
O    -0.679000000    -0.570000000    -4.802000000
C    -0.065000000    -1.537000000    -3.947000000
C    -1.042000000    -2.651000000    -3.574000000
C    -0.562000000    -3.946000000    -3.199000000
H     0.499000000    -4.144000000    -3.073000000
C    -2.453000000    -2.485000000    -3.629000000
H    -2.885000000    -1.527000000    -3.907000000
O     1.190000000    -2.039000000    -4.534000000
H     0.262000000    -0.963000000    -3.067000000
C     0.783000000     1.457000000    -4.726000000
C     1.988000000     0.700000000    -5.215000000
H     2.641000000     1.397000000    -5.744000000
H     1.582000000     0.085000000    -6.021000000
C     2.747000000    -0.121000000    -4.177000000
C     3.723000000     0.486000000    -3.358000000
H     4.023000000     1.516000000    -3.530000000
C     2.368000000    -1.459000000    -4.003000000
C     2.885000000    -2.171000000    -2.924000000
H     2.487000000    -3.141000000    -2.637000000
C     3.902000000    -1.642000000    -2.197000000
O     4.190000000    -2.373000000    -1.100000000
C     3.756000000    -1.911000000     0.242000000
C     3.268000000    -3.107000000     1.079000000
C     3.187000000    -4.381000000     0.477000000
H     3.593000000    -4.544000000    -0.518000000
C     3.034000000    -2.955000000     2.477000000
H     3.222000000    -2.000000000     2.960000000
O     4.777000000    -1.079000000     0.839000000
H     2.883000000    -1.251000000     0.128000000
C     4.328000000    -0.273000000    -2.369000000
C     5.346000000     0.351000000    -1.393000000
H     5.777000000     1.132000000    -2.023000000
H     6.044000000    -0.439000000    -1.109000000
C     4.707000000     0.995000000    -0.153000000
C     4.452000000     0.204000000     0.904000000
C     3.840000000     0.794000000     2.059000000
H     3.577000000     0.171000000     2.910000000
C     3.431000000     2.118000000     2.045000000
O     2.814000000     2.627000000     3.133000000
C     1.368000000     2.737000000     3.096000000
H     1.066000000     2.155000000     2.212000000
C     0.645000000     2.277000000     4.325000000
C    -0.706000000     2.652000000     4.493000000
H    -1.084000000     3.380000000     3.780000000
C     1.192000000     1.407000000     5.199000000
H     2.208000000     1.071000000     5.006000000
C     0.420000000     0.829000000     6.213000000
O     0.914000000    -0.113000000     7.070000000
C    -0.843000000     1.321000000     6.450000000
H    -1.371000000     0.781000000     7.232000000
C    -1.457000000     2.208000000     5.600000000
O    -2.773000000     2.566000000     5.753000000
C    -3.564000000     3.359000000     4.991000000
C    -4.400000000     2.780000000     4.026000000
H    -4.461000000     1.703000000     3.894000000
C    -3.440000000     4.734000000     5.044000000
H    -2.750000000     5.240000000     5.714000000
C    -4.132000000     5.518000000     4.148000000
H    -4.151000000     6.602000000     4.225000000
C    -4.943000000     4.968000000     3.215000000
H    -5.509000000     5.594000000     2.530000000
C    -5.108000000     3.572000000     3.120000000
O    -6.004000000     2.968000000     2.312000000
C    -5.551000000     2.582000000     1.051000000
C    -6.363000000     1.828000000     0.298000000
H    -7.400000000     1.668000000     0.583000000
C    -6.014000000     1.324000000    -0.943000000
O    -6.859000000     0.549000000    -1.718000000
C    -6.480000000    -0.216000000    -2.759000000
C    -5.808000000    -1.438000000    -2.592000000
H    -5.588000000    -1.794000000    -1.588000000
C    -6.768000000     0.250000000    -4.046000000
H    -7.225000000     1.234000000    -4.124000000
C    -6.356000000    -0.452000000    -5.154000000
H    -6.556000000    -0.093000000    -6.160000000
C    -5.735000000    -1.693000000    -4.944000000
H    -5.371000000    -2.296000000    -5.772000000
C    -5.388000000    -2.141000000    -3.705000000
O    -4.727000000    -3.352000000    -3.526000000
C    -3.291000000    -3.560000000    -3.439000000
C    -2.862000000    -4.868000000    -3.136000000
H    -3.509000000    -5.726000000    -2.980000000
C    -1.476000000    -5.074000000    -3.055000000
O    -0.973000000    -6.320000000    -2.626000000
C     0.329000000    -6.566000000    -2.341000000
C     0.777000000    -6.409000000    -1.022000000
H     0.046000000    -6.356000000    -0.219000000
C     1.171000000    -6.719000000    -3.453000000
H     0.867000000    -6.813000000    -4.492000000
C     2.581000000    -6.837000000    -3.099000000
H     3.299000000    -6.865000000    -3.915000000
C     3.028000000    -6.896000000    -1.733000000
H     4.085000000    -7.022000000    -1.512000000
C     2.099000000    -6.729000000    -0.719000000
O     2.496000000    -6.681000000     0.623000000
C     2.616000000    -5.392000000     1.169000000
C     2.395000000    -5.252000000     2.532000000
H     1.868000000    -6.092000000     2.978000000
C     2.549000000    -4.023000000     3.162000000
O     2.231000000    -3.978000000     4.492000000
C     2.504000000    -2.986000000     5.463000000
C     3.738000000    -2.993000000     6.134000000
H     4.395000000    -3.821000000     5.880000000
C     4.066000000    -2.002000000     7.025000000
H     5.067000000    -1.948000000     7.445000000
C     3.183000000    -0.961000000     7.283000000
H     3.528000000    -0.190000000     7.967000000
C     1.889000000    -0.987000000     6.656000000
C     1.577000000    -2.028000000     5.765000000
H     0.631000000    -2.070000000     5.230000000
C    -0.401000000    -2.614000000     1.132000000
H    -0.292000000    -3.695000000     1.187000000
C     0.017000000    -1.925000000    -0.020000000
H     0.322000000    -2.539000000    -0.864000000
C    -0.008000000    -0.513000000    -0.138000000
H     0.239000000    -0.001000000    -1.027000000
C    -0.489000000     0.200000000     0.924000000
H    -0.434000000     1.286000000     0.911000000
C    -0.829000000    -0.434000000     2.123000000
H    -1.269000000     0.139000000     2.935000000
C    -0.802000000    -1.847000000     2.203000000
C    -1.552000000    -2.583000000     3.309000000
O    -2.187000000    -1.942000000     4.175000000
O    -1.571000000    -3.802000000     3.315000000
O    -2.537000000    -4.892000000     5.606000000
H    -1.876000000    -4.730000000     6.279000000
H    -2.275000000    -4.337000000     4.873000000
O    -5.749000000    -6.573000000     5.402000000
H    -5.612000000    -5.904000000     6.072000000
H    -4.974000000    -6.515000000     4.843000000
O    -1.871000000    -8.392000000     0.084000000
H    -1.996000000    -8.006000000     0.951000000
H    -1.037000000    -8.857000000     0.147000000
O    -3.422000000    -6.181000000     0.534000000
H    -2.631000000    -5.842000000     0.952000000
H    -3.137000000    -6.980000000     0.092000000
O     0.155000000    -1.591000000     9.397000000
H     0.427000000    -1.101000000     8.621000000
H    -0.692000000    -1.212000000     9.634000000
O    -2.892000000    -1.795000000     6.631000000
H    -3.576000000    -2.436000000     6.436000000
H    -2.582000000    -1.507000000     5.772000000
O    -6.831000000    -0.074000000     3.086000000
H    -5.905000000    -0.007000000     2.855000000
H    -6.903000000    -0.910000000     3.548000000
O    -3.626000000    -6.561000000     7.527000000
H    -3.204000000    -7.303000000     7.961000000
H    -3.073000000    -6.382000000     6.767000000
O    -2.647000000    -1.077000000     9.228000000
H    -3.518000000    -1.257000000     9.583000000
H    -2.698000000    -1.359000000     8.315000000
O    -4.631000000    -4.188000000     3.171000000
H    -3.731000000    -3.913000000     3.346000000
H    -4.559000000    -5.118000000     2.954000000
O    -3.163000000    -1.535000000    -0.004000000
H    -2.216000000    -1.517000000     0.132000000
H    -3.280000000    -2.040000000    -0.809000000
O    -1.056000000    -7.165000000     5.595000000
H    -0.387000000    -6.719000000     6.115000000
H    -1.692000000    -6.481000000     5.385000000
O    -3.826000000    -7.351000000     3.493000000
H    -3.117000000    -7.952000000     3.263000000
H    -4.512000000    -7.534000000     2.851000000
O     0.051000000    -5.069000000     7.407000000
H    -0.102000000    -5.295000000     8.324000000
H     0.202000000    -4.124000000     7.414000000
O    -6.314000000    -2.470000000     4.248000000
H    -5.758000000    -2.510000000     5.026000000
H    -5.830000000    -2.958000000     3.582000000
O    -4.952000000    -3.551000000     6.669000000
H    -4.381000000    -4.319000000     6.677000000
H    -5.250000000    -3.464000000     7.574000000
O    -4.088000000    -0.400000000     2.300000000
H    -3.522000000    -0.926000000     2.865000000
H    -4.056000000    -0.842000000     1.452000000
O    -1.057000000    -6.325000000     2.591000000
H    -1.254000000    -6.718000000     3.442000000
H    -1.003000000    -5.386000000     2.768000000
O    -5.493000000    -4.376000000     0.084000000
H    -5.261000000    -3.648000000     0.660000000
H    -4.953000000    -5.105000000     0.389000000
