215
-1431.69861
C    -4.325000000     1.857000000    -2.650000000
H    -3.868000000     1.915000000    -3.635000000
C    -3.656000000     2.442000000    -1.574000000
C    -4.241000000     2.403000000    -0.342000000
H    -3.793000000     2.984000000     0.460000000
C    -2.387000000     3.240000000    -1.772000000
O    -2.085000000     3.469000000    -3.165000000
H    -1.596000000     2.571000000    -1.405000000
O    -2.267000000     4.446000000    -1.052000000
C    -1.028000000     4.610000000    -0.392000000
C    -1.055000000     4.196000000     0.993000000
H    -2.020000000     3.982000000     1.444000000
C     0.154000000     4.102000000     1.759000000
O     0.081000000     3.671000000     3.041000000
C     1.335000000     4.497000000     1.088000000
C     2.649000000     4.535000000     1.869000000
H     3.423000000     5.218000000     1.512000000
C     3.223000000     3.139000000     1.863000000
C     4.124000000     2.661000000     0.820000000
H     4.470000000     3.407000000     0.109000000
H     2.497000000     4.793000000     2.919000000
C     1.335000000     4.827000000    -0.305000000
H     2.301000000     4.993000000    -0.774000000
C     0.160000000     4.843000000    -1.071000000
C     0.107000000     5.123000000    -2.592000000
H     0.949000000     5.793000000    -2.775000000
H    -0.761000000     5.725000000    -2.870000000
C     0.215000000     3.745000000    -3.308000000
C     1.518000000     3.280000000    -3.686000000
H     2.433000000     3.841000000    -3.515000000
C    -0.913000000     3.021000000    -3.588000000
C    -0.824000000     1.818000000    -4.260000000
H    -1.689000000     1.170000000    -4.376000000
C     0.399000000     1.276000000    -4.463000000
O     0.419000000    -0.030000000    -4.849000000
C     0.723000000    -0.952000000    -3.834000000
C    -0.359000000    -2.050000000    -3.700000000
C    -0.117000000    -3.109000000    -2.881000000
H     0.847000000    -3.120000000    -2.378000000
C    -1.567000000    -1.993000000    -4.382000000
H    -1.810000000    -1.186000000    -5.069000000
O     2.091000000    -1.444000000    -4.000000000
H     0.616000000    -0.435000000    -2.868000000
C     1.577000000     1.971000000    -4.219000000
C     2.983000000     1.326000000    -4.457000000
H     3.706000000     2.138000000    -4.558000000
H     3.017000000     0.692000000    -5.346000000
C     3.300000000     0.512000000    -3.258000000
C     4.136000000     1.070000000    -2.334000000
H     4.283000000     2.146000000    -2.388000000
C     3.009000000    -0.911000000    -3.222000000
C     3.581000000    -1.701000000    -2.178000000
H     3.292000000    -2.749000000    -2.174000000
C     4.384000000    -1.091000000    -1.238000000
O     4.756000000    -1.830000000    -0.105000000
C     4.049000000    -1.676000000     1.149000000
C     3.898000000    -3.009000000     1.777000000
C     3.529000000    -4.074000000     0.955000000
H     3.653000000    -3.857000000    -0.103000000
C     3.783000000    -3.070000000     3.114000000
H     3.868000000    -2.146000000     3.679000000
O     4.754000000    -0.748000000     1.971000000
H     3.057000000    -1.238000000     0.965000000
C     4.707000000     0.243000000    -1.304000000
C     5.546000000     0.869000000    -0.236000000
H     6.063000000     1.662000000    -0.780000000
H     6.397000000     0.261000000     0.077000000
C     4.807000000     1.427000000     0.925000000
C     4.455000000     0.566000000     1.954000000
C     3.587000000     0.964000000     2.938000000
H     3.343000000     0.313000000     3.774000000
C     3.045000000     2.258000000     2.892000000
O     2.048000000     2.505000000     3.839000000
C     0.656000000     2.358000000     3.333000000
H     0.673000000     1.736000000     2.426000000
C    -0.258000000     1.641000000     4.325000000
C    -1.590000000     1.923000000     4.293000000
H    -2.049000000     2.603000000     3.580000000
C     0.170000000     0.535000000     5.067000000
H     1.224000000     0.298000000     5.190000000
C    -0.711000000    -0.144000000     5.829000000
O    -0.263000000    -1.300000000     6.560000000
C    -2.020000000     0.187000000     5.858000000
H    -2.627000000    -0.486000000     6.458000000
C    -2.519000000     1.284000000     5.177000000
O    -3.875000000     1.528000000     5.259000000
C    -4.637000000     2.192000000     4.326000000
C    -5.052000000     1.559000000     3.164000000
H    -4.848000000     0.498000000     3.041000000
C    -4.938000000     3.465000000     4.594000000
H    -4.721000000     3.886000000     5.572000000
C    -5.685000000     4.144000000     3.665000000
H    -6.028000000     5.156000000     3.865000000
C    -6.041000000     3.586000000     2.478000000
H    -6.612000000     4.167000000     1.759000000
C    -5.753000000     2.270000000     2.192000000
O    -6.182000000     1.720000000     1.026000000
C    -5.487000000     1.790000000    -0.161000000
C    -6.164000000     1.228000000    -1.239000000
H    -7.147000000     0.781000000    -1.116000000
C    -5.539000000     1.253000000    -2.484000000
O    -6.293000000     0.831000000    -3.546000000
C    -5.703000000     0.146000000    -4.574000000
C    -4.972000000    -0.943000000    -4.271000000
H    -4.707000000    -1.042000000    -3.222000000
C    -5.934000000     0.535000000    -5.930000000
H    -6.543000000     1.379000000    -6.244000000
C    -5.321000000    -0.264000000    -6.927000000
H    -5.240000000    -0.109000000    -8.000000000
C    -4.478000000    -1.326000000    -6.589000000
H    -3.973000000    -2.015000000    -7.261000000
C    -4.361000000    -1.708000000    -5.261000000
O    -3.657000000    -2.922000000    -5.025000000
C    -2.529000000    -2.967000000    -4.232000000
C    -2.294000000    -4.013000000    -3.418000000
H    -3.038000000    -4.803000000    -3.361000000
C    -1.092000000    -4.125000000    -2.680000000
O    -0.959000000    -5.138000000    -1.777000000
C     0.264000000    -5.817000000    -1.801000000
C     1.152000000    -5.582000000    -0.745000000
H     0.935000000    -4.862000000     0.039000000
C     0.515000000    -6.789000000    -2.790000000
H    -0.262000000    -7.088000000    -3.489000000
C     1.678000000    -7.520000000    -2.667000000
H     1.814000000    -8.342000000    -3.364000000
C     2.560000000    -7.371000000    -1.574000000
H     3.478000000    -7.951000000    -1.532000000
C     2.313000000    -6.377000000    -0.631000000
O     3.008000000    -6.420000000     0.550000000
C     3.236000000    -5.339000000     1.459000000
C     3.050000000    -5.432000000     2.819000000
H     2.533000000    -6.308000000     3.200000000
C     3.318000000    -4.302000000     3.612000000
O     2.992000000    -4.486000000     4.891000000
C     2.608000000    -3.427000000     5.684000000
C     3.500000000    -3.005000000     6.668000000
H     4.495000000    -3.438000000     6.739000000
C     3.160000000    -2.002000000     7.574000000
H     3.900000000    -1.781000000     8.339000000
C     1.928000000    -1.397000000     7.515000000
H     1.613000000    -0.666000000     8.256000000
C     1.052000000    -1.803000000     6.517000000
C     1.361000000    -2.788000000     5.631000000
H     0.656000000    -3.150000000     4.887000000
C    -0.715000000    -2.894000000     1.223000000
H    -0.657000000    -3.978000000     1.260000000
C     0.049000000    -2.211000000     0.288000000
H     0.669000000    -2.871000000    -0.314000000
C    -0.107000000    -0.878000000     0.058000000
H     0.519000000    -0.488000000    -0.733000000
C    -0.979000000    -0.170000000     0.919000000
H    -1.140000000     0.885000000     0.715000000
C    -1.769000000    -0.810000000     1.886000000
H    -2.295000000    -0.273000000     2.671000000
C    -1.596000000    -2.211000000     2.077000000
C    -2.314000000    -2.977000000     3.177000000
O    -3.214000000    -2.480000000     3.818000000
O    -2.121000000    -4.186000000     3.321000000
O    -5.461000000    -4.649000000    -0.916000000
H    -5.898000000    -4.114000000    -0.253000000
H    -4.533000000    -4.606000000    -0.685000000
O    -2.749000000    -3.739000000     6.354000000
H    -2.361000000    -3.983000000     5.513000000
H    -2.749000000    -2.782000000     6.348000000
O    -3.733000000    -6.625000000     4.931000000
H    -2.882000000    -7.028000000     4.756000000
H    -3.712000000    -6.419000000     5.866000000
O    -6.203000000    -5.928000000     3.986000000
H    -6.144000000    -4.980000000     3.868000000
H    -5.298000000    -6.210000000     4.120000000
O    -5.190000000    -2.252000000     5.409000000
H    -4.370000000    -2.363000000     4.926000000
H    -5.740000000    -1.727000000     4.828000000
O    -1.679000000    -4.547000000     8.716000000
H    -1.398000000    -3.676000000     8.995000000
H    -2.154000000    -4.396000000     7.899000000
O    -8.810000000    -3.045000000     3.882000000
H    -9.102000000    -3.290000000     3.004000000
H    -7.860000000    -2.962000000     3.804000000
O    -7.456000000    -0.562000000     4.526000000
H    -7.843000000    -0.729000000     3.666000000
H    -7.834000000     0.274000000     4.800000000
O    -7.662000000    -6.075000000     1.379000000
H    -7.759000000    -6.918000000     0.937000000
H    -6.808000000    -6.126000000     1.808000000
O    -3.203000000    -8.286000000     0.218000000
H    -3.327000000    -7.455000000     0.675000000
H    -3.257000000    -8.060000000    -0.711000000
O    -5.637000000    -3.625000000     2.739000000
H    -5.711000000    -3.055000000     1.974000000
H    -4.877000000    -3.289000000     3.215000000
O    -3.117000000    -1.821000000    -0.715000000
H    -2.609000000    -2.408000000    -1.276000000
H    -2.562000000    -1.684000000     0.053000000
O    -1.830000000    -8.410000000     4.604000000
H    -1.197000000    -8.771000000     5.225000000
H    -1.459000000    -8.603000000     3.744000000
O    -0.316000000    -6.188000000     3.825000000
H    -0.713000000    -5.394000000     3.468000000
H    -0.966000000    -6.525000000     4.441000000
O    -5.939000000    -3.590000000     7.631000000
H    -5.431000000    -3.031000000     8.218000000
H    -5.703000000    -3.293000000     6.752000000
O    -8.145000000    -0.098000000     1.981000000
H    -8.799000000     0.154000000     1.329000000
H    -7.319000000     0.237000000     1.635000000
O    -5.522000000    -1.602000000     0.821000000
H    -4.732000000    -1.459000000     0.299000000
H    -6.201000000    -1.806000000     0.178000000
O    -0.283000000    -8.649000000     2.435000000
H     0.304000000    -7.928000000     2.665000000
H    -0.013000000    -8.904000000     1.553000000
O    -3.363000000    -6.096000000     1.934000000
H    -4.232000000    -5.763000000     2.161000000
H    -2.758000000    -5.535000000     2.419000000
