215
-1470.96858
C    -4.691000000     1.365000000    -1.908000000
H    -4.376000000     1.068000000    -2.905000000
C    -4.001000000     2.292000000    -1.095000000
C    -4.368000000     2.473000000     0.248000000
H    -3.813000000     3.063000000     0.972000000
C    -2.714000000     2.847000000    -1.611000000
O    -2.738000000     3.124000000    -3.020000000
H    -1.928000000     2.102000000    -1.415000000
O    -2.524000000     4.075000000    -0.837000000
C    -1.232000000     4.239000000    -0.391000000
C    -0.985000000     4.004000000     0.961000000
H    -1.745000000     3.654000000     1.654000000
C     0.311000000     4.118000000     1.459000000
O     0.473000000     3.833000000     2.872000000
C     1.387000000     4.471000000     0.732000000
C     2.706000000     4.647000000     1.381000000
H     3.325000000     5.419000000     0.918000000
C     3.415000000     3.310000000     1.399000000
C     4.233000000     2.938000000     0.370000000
H     4.318000000     3.650000000    -0.446000000
H     2.582000000     4.960000000     2.420000000
C     1.189000000     4.629000000    -0.630000000
H     2.034000000     4.891000000    -1.261000000
C    -0.107000000     4.597000000    -1.191000000
C    -0.332000000     4.927000000    -2.673000000
H     0.480000000     5.440000000    -3.193000000
H    -1.214000000     5.559000000    -2.795000000
C    -0.368000000     3.648000000    -3.540000000
C     0.891000000     3.230000000    -4.011000000
H     1.751000000     3.891000000    -3.939000000
C    -1.556000000     2.887000000    -3.695000000
C    -1.376000000     1.616000000    -4.223000000
H    -2.199000000     0.921000000    -4.371000000
C    -0.129000000     1.082000000    -4.606000000
O    -0.128000000    -0.240000000    -5.000000000
C     0.415000000    -1.213000000    -4.078000000
C    -0.358000000    -2.522000000    -4.195000000
C     0.204000000    -3.796000000    -4.052000000
H     1.273000000    -3.944000000    -3.921000000
C    -1.745000000    -2.405000000    -4.200000000
H    -2.252000000    -1.443000000    -4.203000000
O     1.794000000    -1.433000000    -4.424000000
H     0.339000000    -0.823000000    -3.052000000
C     1.047000000     1.904000000    -4.499000000
C     2.389000000     1.352000000    -4.801000000
H     3.120000000     2.086000000    -5.146000000
H     2.183000000     0.707000000    -5.658000000
C     3.021000000     0.523000000    -3.681000000
C     3.941000000     1.102000000    -2.833000000
H     4.206000000     2.147000000    -2.971000000
C     2.746000000    -0.848000000    -3.585000000
C     3.380000000    -1.591000000    -2.640000000
H     3.179000000    -2.652000000    -2.516000000
C     4.279000000    -1.036000000    -1.747000000
O     4.600000000    -1.713000000    -0.656000000
C     4.037000000    -1.470000000     0.572000000
C     3.677000000    -2.774000000     1.287000000
C     2.732000000    -3.596000000     0.701000000
H     2.449000000    -3.272000000    -0.297000000
C     3.940000000    -3.073000000     2.642000000
H     4.503000000    -2.326000000     3.195000000
O     4.923000000    -0.626000000     1.349000000
H     3.035000000    -1.018000000     0.587000000
C     4.534000000     0.347000000    -1.815000000
C     5.448000000     1.162000000    -0.956000000
H     5.823000000     2.104000000    -1.361000000
H     6.295000000     0.516000000    -0.717000000
C     4.735000000     1.623000000     0.301000000
C     4.544000000     0.704000000     1.326000000
C     3.730000000     1.089000000     2.400000000
H     3.597000000     0.408000000     3.237000000
C     3.126000000     2.352000000     2.427000000
O     2.264000000     2.563000000     3.520000000
C     0.890000000     2.497000000     3.181000000
H     0.884000000     1.826000000     2.309000000
C     0.073000000     1.845000000     4.252000000
C    -1.201000000     2.295000000     4.518000000
H    -1.652000000     3.144000000     4.012000000
C     0.543000000     0.710000000     4.887000000
H     1.439000000     0.203000000     4.537000000
C    -0.250000000     0.087000000     5.862000000
O     0.136000000    -1.180000000     6.330000000
C    -1.447000000     0.610000000     6.279000000
H    -1.911000000     0.135000000     7.139000000
C    -1.912000000     1.771000000     5.598000000
O    -3.149000000     2.331000000     5.896000000
C    -3.979000000     2.924000000     4.983000000
C    -4.554000000     2.182000000     3.969000000
H    -4.416000000     1.103000000     3.980000000
C    -4.367000000     4.275000000     5.112000000
H    -3.974000000     4.872000000     5.931000000
C    -5.126000000     4.931000000     4.117000000
H    -5.292000000     6.004000000     4.154000000
C    -5.661000000     4.100000000     3.083000000
H    -6.385000000     4.567000000     2.421000000
C    -5.424000000     2.740000000     3.017000000
O    -6.011000000     1.959000000     1.990000000
C    -5.519000000     1.852000000     0.701000000
C    -6.246000000     0.990000000    -0.154000000
H    -7.128000000     0.540000000     0.294000000
C    -5.876000000     0.804000000    -1.470000000
O    -6.574000000    -0.156000000    -2.183000000
C    -6.100000000    -0.722000000    -3.385000000
C    -5.213000000    -1.830000000    -3.276000000
H    -4.893000000    -2.340000000    -2.370000000
C    -6.185000000    -0.065000000    -4.605000000
H    -6.881000000     0.768000000    -4.643000000
C    -5.566000000    -0.526000000    -5.741000000
H    -5.684000000    -0.047000000    -6.710000000
C    -4.688000000    -1.611000000    -5.655000000
H    -4.214000000    -2.069000000    -6.519000000
C    -4.551000000    -2.246000000    -4.430000000
O    -3.916000000    -3.440000000    -4.250000000
C    -2.536000000    -3.590000000    -4.201000000
C    -1.953000000    -4.877000000    -4.157000000
H    -2.646000000    -5.711000000    -4.084000000
C    -0.557000000    -4.965000000    -4.053000000
O    -0.033000000    -6.181000000    -3.867000000
C     0.805000000    -6.396000000    -2.840000000
C     0.459000000    -5.899000000    -1.636000000
H    -0.450000000    -5.317000000    -1.505000000
C     2.023000000    -7.105000000    -3.005000000
H     2.430000000    -7.477000000    -3.942000000
C     2.808000000    -7.327000000    -1.899000000
H     3.750000000    -7.854000000    -2.028000000
C     2.532000000    -6.800000000    -0.688000000
H     3.189000000    -6.860000000     0.175000000
C     1.379000000    -6.008000000    -0.596000000
O     1.170000000    -5.368000000     0.607000000
C     2.115000000    -4.664000000     1.309000000
C     2.332000000    -4.850000000     2.675000000
H     1.812000000    -5.622000000     3.236000000
C     3.299000000    -4.095000000     3.320000000
O     3.505000000    -4.224000000     4.741000000
C     3.139000000    -3.191000000     5.592000000
C     4.018000000    -2.836000000     6.569000000
H     5.022000000    -3.251000000     6.585000000
C     3.626000000    -1.943000000     7.563000000
H     4.296000000    -1.750000000     8.397000000
C     2.353000000    -1.400000000     7.457000000
H     1.997000000    -0.724000000     8.229000000
C     1.400000000    -1.741000000     6.471000000
C     1.849000000    -2.642000000     5.501000000
H     1.181000000    -2.974000000     4.710000000
C    -0.160000000    -1.921000000     1.966000000
H     0.104000000    -2.974000000     2.031000000
C     0.190000000    -1.102000000     0.919000000
H     1.001000000    -1.353000000     0.240000000
C    -0.464000000     0.159000000     0.769000000
H    -0.276000000     0.791000000    -0.137000000
C    -1.478000000     0.604000000     1.622000000
H    -2.051000000     1.512000000     1.453000000
C    -1.852000000    -0.302000000     2.609000000
H    -2.820000000    -0.107000000     3.063000000
C    -1.224000000    -1.534000000     2.838000000
C    -1.805000000    -2.569000000     3.830000000
O    -2.822000000    -2.272000000     4.521000000
O    -1.480000000    -3.765000000     3.749000000
O    -5.798000000    -5.705000000     1.019000000
H    -5.507000000    -5.199000000     1.777000000
H    -5.631000000    -6.616000000     1.262000000
O    -3.390000000    -3.160000000     6.781000000
H    -2.559000000    -3.590000000     6.983000000
H    -3.253000000    -2.769000000     5.918000000
O    -3.261000000    -6.301000000     4.586000000
H    -2.622000000    -6.887000000     4.181000000
H    -2.917000000    -5.422000000     4.423000000
O    -5.007000000    -1.083000000     5.346000000
H    -4.129000000    -1.091000000     4.964000000
H    -5.596000000    -1.051000000     4.592000000
O    -0.790000000    -4.348000000     8.043000000
H    -0.212000000    -3.654000000     8.358000000
H    -0.943000000    -4.900000000     8.810000000
O    -7.845000000    -3.800000000     4.219000000
H    -8.289000000    -4.014000000     3.399000000
H    -6.958000000    -4.142000000     4.107000000
O    -7.219000000    -1.106000000     3.750000000
H    -7.939000000    -0.670000000     3.295000000
H    -7.413000000    -2.040000000     3.666000000
O    -3.163000000    -7.230000000     0.098000000
H    -2.862000000    -6.343000000     0.297000000
H    -3.515000000    -7.169000000    -0.790000000
O    -5.297000000    -3.890000000     3.334000000
H    -5.174000000    -3.038000000     2.917000000
H    -4.512000000    -4.010000000     3.869000000
O    -5.175000000    -2.161000000     8.817000000
H    -4.391000000    -2.256000000     8.277000000
H    -5.601000000    -3.018000000     8.773000000
O    -3.098000000    -1.416000000    -0.633000000
H    -2.490000000    -2.141000000    -0.777000000
H    -2.684000000    -0.889000000     0.051000000
O     1.536000000    -7.338000000     6.143000000
H     0.778000000    -6.798000000     5.922000000
H     1.986000000    -6.849000000     6.832000000
O    -0.083000000    -5.254000000     5.349000000
H    -0.595000000    -4.750000000     4.716000000
H    -0.473000000    -5.041000000     6.197000000
O    -5.367000000     1.156000000     7.030000000
H    -5.078000000     0.284000000     6.761000000
H    -4.594000000     1.709000000     6.921000000
O    -6.009000000    -4.587000000     7.189000000
H    -6.925000000    -4.351000000     7.046000000
H    -5.513000000    -3.916000000     6.720000000
O    -4.309000000    -6.713000000     7.222000000
H    -3.847000000    -6.457000000     6.424000000
H    -4.698000000    -5.901000000     7.545000000
O    -5.130000000    -1.914000000     1.163000000
H    -4.535000000    -1.726000000     0.437000000
H    -5.519000000    -1.067000000     1.379000000
O    -1.004000000    -7.589000000     3.148000000
H    -0.445000000    -6.816000000     3.066000000
H    -0.764000000    -8.139000000     2.402000000
O    -2.602000000    -4.910000000     1.541000000
H    -3.400000000    -4.382000000     1.541000000
H    -2.112000000    -4.604000000     2.304000000
