215
-1443.38234
C    -4.397000000     1.927000000    -1.757000000
H    -4.047000000     1.738000000    -2.769000000
C    -3.746000000     2.830000000    -0.878000000
C    -4.273000000     3.152000000     0.443000000
H    -3.854000000     3.851000000     1.163000000
C    -2.312000000     3.288000000    -1.326000000
O    -2.316000000     3.323000000    -2.753000000
H    -1.592000000     2.495000000    -1.075000000
O    -1.910000000     4.569000000    -0.843000000
C    -0.626000000     4.576000000    -0.325000000
C    -0.429000000     4.289000000     1.024000000
H    -1.284000000     4.075000000     1.661000000
C     0.892000000     4.237000000     1.594000000
O     1.003000000     3.865000000     2.887000000
C     1.986000000     4.461000000     0.739000000
C     3.441000000     4.112000000     1.132000000
H     4.162000000     4.565000000     0.447000000
C     3.754000000     2.630000000     1.190000000
C     4.357000000     2.036000000     0.112000000
H     4.455000000     2.663000000    -0.770000000
H     3.675000000     4.642000000     2.057000000
C     1.729000000     4.768000000    -0.612000000
H     2.629000000     4.874000000    -1.212000000
C     0.472000000     4.842000000    -1.205000000
C     0.280000000     4.920000000    -2.713000000
H     1.156000000     5.304000000    -3.238000000
H    -0.518000000     5.625000000    -2.956000000
C     0.092000000     3.487000000    -3.237000000
C     1.264000000     2.792000000    -3.672000000
H     2.284000000     3.144000000    -3.539000000
C    -1.188000000     2.878000000    -3.378000000
C    -1.177000000     1.682000000    -4.045000000
H    -2.133000000     1.168000000    -4.107000000
C    -0.071000000     1.006000000    -4.516000000
O    -0.213000000    -0.276000000    -5.029000000
C     0.101000000    -1.274000000    -3.974000000
C    -1.045000000    -2.250000000    -4.063000000
C    -0.884000000    -3.427000000    -3.396000000
H     0.042000000    -3.661000000    -2.878000000
C    -2.173000000    -2.052000000    -4.816000000
H    -2.289000000    -1.184000000    -5.460000000
O     1.336000000    -2.006000000    -4.181000000
H     0.163000000    -0.822000000    -2.973000000
C     1.174000000     1.606000000    -4.384000000
C     2.337000000     0.710000000    -4.896000000
H     3.136000000     1.330000000    -5.308000000
H     2.050000000     0.178000000    -5.806000000
C     2.907000000    -0.165000000    -3.805000000
C     3.978000000     0.258000000    -3.019000000
H     4.435000000     1.203000000    -3.301000000
C     2.409000000    -1.476000000    -3.561000000
C     2.978000000    -2.218000000    -2.578000000
H     2.653000000    -3.254000000    -2.525000000
C     4.025000000    -1.860000000    -1.763000000
O     4.303000000    -2.639000000    -0.680000000
C     3.643000000    -2.206000000     0.555000000
C     3.043000000    -3.305000000     1.420000000
C     2.508000000    -4.434000000     0.723000000
H     2.528000000    -4.414000000    -0.364000000
C     3.047000000    -3.364000000     2.797000000
H     3.405000000    -2.509000000     3.366000000
O     4.543000000    -1.425000000     1.360000000
H     2.769000000    -1.564000000     0.368000000
C     4.524000000    -0.584000000    -2.051000000
C     5.515000000     0.060000000    -1.088000000
H     6.055000000     0.832000000    -1.641000000
H     6.149000000    -0.745000000    -0.711000000
C     4.777000000     0.689000000     0.106000000
C     4.425000000    -0.069000000     1.268000000
C     3.730000000     0.570000000     2.280000000
H     3.506000000    -0.008000000     3.173000000
C     3.402000000     1.916000000     2.306000000
O     2.689000000     2.476000000     3.294000000
C     1.312000000     2.520000000     3.073000000
H     1.051000000     1.963000000     2.162000000
C     0.579000000     1.833000000     4.219000000
C    -0.792000000     2.136000000     4.413000000
H    -1.392000000     2.764000000     3.759000000
C     1.234000000     1.033000000     5.189000000
H     2.270000000     0.764000000     5.000000000
C     0.511000000     0.458000000     6.239000000
O     1.170000000    -0.291000000     7.177000000
C    -0.826000000     0.752000000     6.381000000
H    -1.405000000     0.285000000     7.174000000
C    -1.511000000     1.527000000     5.459000000
O    -2.899000000     1.792000000     5.660000000
C    -3.695000000     2.708000000     4.951000000
C    -4.454000000     2.284000000     3.807000000
H    -4.410000000     1.255000000     3.458000000
C    -3.794000000     4.064000000     5.359000000
H    -3.374000000     4.391000000     6.307000000
C    -4.612000000     4.977000000     4.674000000
H    -4.637000000     6.009000000     5.015000000
C    -5.367000000     4.569000000     3.590000000
H    -6.054000000     5.276000000     3.132000000
C    -5.245000000     3.269000000     3.167000000
O    -5.975000000     2.796000000     2.073000000
C    -5.440000000     2.529000000     0.841000000
C    -6.127000000     1.682000000    -0.057000000
H    -7.053000000     1.193000000     0.233000000
C    -5.637000000     1.424000000    -1.355000000
O    -6.354000000     0.590000000    -2.254000000
C    -5.957000000     0.198000000    -3.501000000
C    -5.446000000    -1.048000000    -3.703000000
H    -5.256000000    -1.757000000    -2.902000000
C    -6.326000000     1.028000000    -4.538000000
H    -6.954000000     1.897000000    -4.360000000
C    -5.971000000     0.605000000    -5.800000000
H    -6.340000000     1.162000000    -6.657000000
C    -5.385000000    -0.603000000    -6.036000000
H    -5.040000000    -0.889000000    -7.027000000
C    -5.126000000    -1.466000000    -4.982000000
O    -4.520000000    -2.668000000    -5.226000000
C    -3.232000000    -2.974000000    -4.743000000
C    -3.075000000    -4.143000000    -3.981000000
H    -3.823000000    -4.922000000    -3.860000000
C    -1.852000000    -4.398000000    -3.399000000
O    -1.727000000    -5.607000000    -2.756000000
C    -0.546000000    -6.169000000    -2.388000000
C    -0.193000000    -6.444000000    -1.034000000
H    -0.954000000    -6.345000000    -0.264000000
C     0.470000000    -6.382000000    -3.337000000
H     0.233000000    -6.127000000    -4.366000000
C     1.812000000    -6.738000000    -3.038000000
H     2.644000000    -6.822000000    -3.732000000
C     2.125000000    -6.781000000    -1.628000000
H     3.138000000    -6.859000000    -1.242000000
C     1.131000000    -6.611000000    -0.651000000
O     1.445000000    -6.574000000     0.694000000
C     1.921000000    -5.485000000     1.435000000
C     1.998000000    -5.550000000     2.836000000
H     1.671000000    -6.467000000     3.320000000
C     2.480000000    -4.397000000     3.524000000
O     2.562000000    -4.254000000     4.940000000
C     2.902000000    -3.153000000     5.680000000
C     4.118000000    -3.054000000     6.307000000
H     4.819000000    -3.869000000     6.144000000
C     4.399000000    -2.019000000     7.185000000
H     5.338000000    -1.980000000     7.732000000
C     3.388000000    -1.188000000     7.551000000
H     3.590000000    -0.386000000     8.256000000
C     2.145000000    -1.267000000     6.899000000
C     1.924000000    -2.240000000     6.030000000
H     0.950000000    -2.306000000     5.553000000
C    -0.544000000    -2.401000000     0.165000000
H    -0.239000000    -3.365000000    -0.235000000
C     0.171000000    -1.234000000    -0.199000000
H     0.908000000    -1.307000000    -0.994000000
C    -0.168000000    -0.009000000     0.406000000
H     0.202000000     0.961000000     0.109000000
C    -1.134000000     0.061000000     1.471000000
H    -1.312000000     0.966000000     2.046000000
C    -1.689000000    -1.153000000     1.876000000
H    -2.489000000    -0.999000000     2.596000000
C    -1.392000000    -2.388000000     1.291000000
C    -2.123000000    -3.592000000     1.752000000
O    -2.829000000    -3.628000000     2.739000000
O    -2.377000000    -4.438000000     0.925000000
O    -6.879000000    -3.515000000    -1.817000000
H    -6.870000000    -4.432000000    -1.543000000
H    -5.990000000    -3.205000000    -1.644000000
O    -2.870000000    -5.691000000     4.758000000
H    -2.638000000    -5.498000000     5.666000000
H    -2.885000000    -4.836000000     4.327000000
O    -4.215000000    -8.191000000     4.792000000
H    -3.632000000    -8.872000000     5.129000000
H    -3.655000000    -7.421000000     4.701000000
O    -4.578000000    -5.691000000     1.574000000
H    -3.911000000    -5.030000000     1.389000000
H    -4.938000000    -5.437000000     2.424000000
O    -4.416000000    -2.965000000     4.699000000
H    -3.709000000    -3.101000000     4.068000000
H    -5.051000000    -3.653000000     4.501000000
O    -6.407000000    -0.415000000     3.110000000
H    -6.043000000    -1.199000000     2.699000000
H    -7.190000000    -0.217000000     2.595000000
O    -7.801000000    -3.565000000     1.782000000
H    -7.896000000    -3.951000000     2.653000000
H    -6.992000000    -3.056000000     1.833000000
O    -6.238000000    -6.106000000    -0.715000000
H    -5.486000000    -5.877000000    -0.170000000
H    -5.864000000    -6.607000000    -1.440000000
O    -3.035000000    -2.702000000     7.165000000
H    -3.435000000    -3.304000000     7.792000000
H    -3.691000000    -2.602000000     6.476000000
O    -2.639000000    -0.745000000    -1.149000000
H    -2.398000000     0.114000000    -1.494000000
H    -2.062000000    -0.872000000    -0.396000000
O    -1.975000000   -10.490000000     0.251000000
H    -1.655000000   -11.177000000     0.835000000
H    -1.559000000    -9.690000000     0.572000000
O    -1.293000000    -4.604000000     6.726000000
H    -0.412000000    -4.236000000     6.661000000
H    -1.864000000    -3.843000000     6.833000000
O    -5.115000000    -8.220000000     2.170000000
H    -4.865000000    -7.350000000     1.858000000
H    -4.747000000    -8.273000000     3.053000000
O    -5.808000000    -0.800000000     5.729000000
H    -6.335000000    -0.517000000     4.982000000
H    -5.241000000    -1.486000000     5.377000000
O    -5.852000000    -5.232000000     4.115000000
H    -6.707000000    -5.602000000     3.899000000
H    -5.516000000    -5.797000000     4.812000000
O     0.304000000    -9.199000000     2.393000000
H    -0.480000000    -9.577000000     2.792000000
H     0.156000000    -8.254000000     2.423000000
O    -5.318000000    -2.502000000     1.603000000
H    -4.676000000    -3.033000000     2.074000000
H    -5.232000000    -2.777000000     0.690000000
O    -1.376000000    -6.647000000     2.162000000
H    -2.002000000    -6.658000000     2.885000000
H    -1.697000000    -5.960000000     1.577000000
O    -4.153000000    -3.059000000    -1.079000000
H    -3.811000000    -2.176000000    -0.938000000
H    -3.375000000    -3.596000000    -1.229000000
