215
-1442.13717
C    -4.246000000     1.929000000    -1.608000000
H    -3.859000000     1.528000000    -2.542000000
C    -3.581000000     2.924000000    -0.896000000
C    -4.082000000     3.269000000     0.363000000
H    -3.550000000     4.015000000     0.947000000
C    -2.164000000     3.351000000    -1.304000000
O    -2.134000000     3.488000000    -2.761000000
H    -1.482000000     2.530000000    -1.035000000
O    -1.719000000     4.572000000    -0.704000000
C    -0.409000000     4.599000000    -0.240000000
C    -0.196000000     4.607000000     1.142000000
H    -1.084000000     4.602000000     1.769000000
C     1.137000000     4.400000000     1.652000000
O     1.259000000     4.053000000     2.933000000
C     2.189000000     4.382000000     0.801000000
C     3.629000000     4.296000000     1.285000000
H     4.294000000     4.857000000     0.625000000
C     4.068000000     2.859000000     1.330000000
C     4.696000000     2.226000000     0.223000000
H     5.081000000     2.755000000    -0.645000000
H     3.697000000     4.693000000     2.300000000
C     1.970000000     4.444000000    -0.572000000
H     2.809000000     4.479000000    -1.262000000
C     0.646000000     4.650000000    -1.089000000
C     0.448000000     4.767000000    -2.591000000
H     1.274000000     5.324000000    -3.038000000
H    -0.427000000     5.392000000    -2.777000000
C     0.192000000     3.454000000    -3.385000000
C     1.222000000     2.755000000    -3.951000000
H     2.235000000     3.147000000    -3.903000000
C    -1.126000000     2.896000000    -3.422000000
C    -1.350000000     1.686000000    -4.024000000
H    -2.362000000     1.292000000    -4.077000000
C    -0.252000000     0.951000000    -4.552000000
O    -0.501000000    -0.286000000    -4.994000000
C    -0.125000000    -1.364000000    -4.085000000
C    -1.181000000    -2.490000000    -4.144000000
C    -0.784000000    -3.723000000    -3.782000000
H     0.265000000    -3.920000000    -3.579000000
C    -2.453000000    -2.292000000    -4.611000000
H    -2.757000000    -1.298000000    -4.927000000
O     1.198000000    -1.815000000    -4.414000000
H    -0.009000000    -0.939000000    -3.077000000
C     1.040000000     1.505000000    -4.604000000
C     2.215000000     0.754000000    -5.114000000
H     2.946000000     1.422000000    -5.573000000
H     1.849000000     0.065000000    -5.878000000
C     2.833000000    -0.097000000    -3.972000000
C     3.778000000     0.474000000    -3.081000000
H     4.074000000     1.513000000    -3.201000000
C     2.254000000    -1.313000000    -3.693000000
C     2.697000000    -2.107000000    -2.613000000
H     2.234000000    -3.090000000    -2.577000000
C     3.740000000    -1.578000000    -1.765000000
O     4.069000000    -2.310000000    -0.695000000
C     3.588000000    -1.928000000     0.612000000
C     2.964000000    -3.171000000     1.320000000
C     2.302000000    -4.195000000     0.562000000
H     2.456000000    -4.246000000    -0.513000000
C     2.767000000    -3.145000000     2.698000000
H     3.273000000    -2.453000000     3.367000000
O     4.631000000    -1.246000000     1.339000000
H     2.764000000    -1.226000000     0.417000000
C     4.288000000    -0.341000000    -1.964000000
C     5.435000000     0.130000000    -1.037000000
H     6.102000000     0.809000000    -1.572000000
H     6.032000000    -0.736000000    -0.742000000
C     4.954000000     0.875000000     0.218000000
C     4.579000000     0.148000000     1.306000000
C     4.100000000     0.770000000     2.504000000
H     3.722000000     0.196000000     3.346000000
C     3.772000000     2.084000000     2.442000000
O     3.045000000     2.562000000     3.484000000
C     1.646000000     2.720000000     3.326000000
H     1.457000000     2.011000000     2.507000000
C     0.813000000     2.160000000     4.444000000
C    -0.524000000     2.435000000     4.509000000
H    -0.915000000     3.147000000     3.787000000
C     1.298000000     1.187000000     5.298000000
H     2.347000000     0.937000000     5.159000000
C     0.474000000     0.585000000     6.236000000
O     0.952000000    -0.327000000     7.231000000
C    -0.834000000     1.006000000     6.413000000
H    -1.450000000     0.498000000     7.150000000
C    -1.347000000     1.977000000     5.523000000
O    -2.724000000     2.208000000     5.439000000
C    -3.452000000     3.103000000     4.712000000
C    -4.447000000     2.604000000     3.882000000
H    -4.606000000     1.551000000     3.665000000
C    -3.266000000     4.487000000     4.953000000
H    -2.416000000     4.912000000     5.480000000
C    -4.019000000     5.396000000     4.252000000
H    -3.966000000     6.463000000     4.450000000
C    -4.945000000     4.907000000     3.318000000
H    -5.569000000     5.524000000     2.677000000
C    -5.171000000     3.530000000     3.037000000
O    -5.909000000     3.183000000     1.901000000
C    -5.350000000     2.828000000     0.702000000
C    -6.014000000     1.861000000     0.009000000
H    -6.924000000     1.372000000     0.349000000
C    -5.493000000     1.425000000    -1.181000000
O    -6.192000000     0.396000000    -1.842000000
C    -5.919000000    -0.123000000    -3.095000000
C    -5.500000000    -1.413000000    -3.285000000
H    -5.139000000    -1.982000000    -2.432000000
C    -6.450000000     0.590000000    -4.168000000
H    -6.822000000     1.578000000    -3.910000000
C    -6.309000000     0.090000000    -5.480000000
H    -6.688000000     0.684000000    -6.307000000
C    -5.622000000    -1.093000000    -5.670000000
H    -5.444000000    -1.543000000    -6.644000000
C    -5.273000000    -1.934000000    -4.578000000
O    -4.747000000    -3.157000000    -4.833000000
C    -3.384000000    -3.379000000    -4.561000000
C    -2.999000000    -4.577000000    -4.050000000
H    -3.674000000    -5.418000000    -4.189000000
C    -1.666000000    -4.776000000    -3.730000000
O    -1.168000000    -6.035000000    -3.693000000
C    -0.098000000    -6.426000000    -2.904000000
C    -0.078000000    -6.128000000    -1.587000000
H    -0.973000000    -5.645000000    -1.203000000
C     0.965000000    -7.116000000    -3.456000000
H     0.891000000    -7.410000000    -4.500000000
C     2.094000000    -7.450000000    -2.715000000
H     2.889000000    -8.078000000    -3.108000000
C     2.126000000    -7.077000000    -1.360000000
H     2.938000000    -7.398000000    -0.713000000
C     0.979000000    -6.557000000    -0.767000000
O     0.961000000    -6.328000000     0.611000000
C     1.656000000    -5.263000000     1.242000000
C     1.430000000    -5.175000000     2.638000000
H     0.823000000    -5.833000000     3.255000000
C     1.985000000    -4.118000000     3.350000000
O     1.820000000    -4.199000000     4.696000000
C     2.156000000    -3.352000000     5.695000000
C     3.419000000    -3.495000000     6.343000000
H     4.084000000    -4.261000000     5.953000000
C     3.799000000    -2.638000000     7.398000000
H     4.785000000    -2.731000000     7.845000000
C     2.942000000    -1.538000000     7.590000000
H     3.246000000    -0.816000000     8.343000000
C     1.761000000    -1.365000000     6.950000000
C     1.300000000    -2.305000000     6.007000000
H     0.522000000    -2.023000000     5.302000000
C    -0.376000000    -1.822000000     1.237000000
H    -0.260000000    -2.894000000     1.101000000
C     0.090000000    -0.837000000     0.347000000
H     0.542000000    -1.123000000    -0.599000000
C    -0.163000000     0.486000000     0.561000000
H     0.165000000     1.190000000    -0.204000000
C    -0.910000000     0.864000000     1.682000000
H    -1.052000000     1.931000000     1.832000000
C    -1.388000000    -0.112000000     2.577000000
H    -1.991000000     0.136000000     3.446000000
C    -1.156000000    -1.484000000     2.338000000
C    -1.764000000    -2.510000000     3.283000000
O    -2.231000000    -2.279000000     4.344000000
O    -1.721000000    -3.640000000     2.950000000
O    -4.768000000    -7.741000000     1.892000000
H    -5.113000000    -8.103000000     2.709000000
H    -3.975000000    -7.272000000     2.154000000
O    -2.766000000    -4.612000000     5.578000000
H    -2.307000000    -3.811000000     5.325000000
H    -2.694000000    -5.182000000     4.813000000
O    -0.850000000    -7.821000000     1.808000000
H    -0.699000000    -8.716000000     2.112000000
H    -0.061000000    -7.599000000     1.314000000
O    -4.261000000    -5.842000000     7.587000000
H    -3.789000000    -5.738000000     6.761000000
H    -4.321000000    -4.956000000     7.942000000
O    -2.991000000    -4.386000000     0.372000000
H    -2.474000000    -3.928000000     1.034000000
H    -3.877000000    -4.038000000     0.476000000
O    -0.871000000    -6.685000000     7.174000000
H    -1.291000000    -5.847000000     7.367000000
H    -1.594000000    -7.310000000     7.123000000
O    -5.882000000    -4.985000000     3.895000000
H    -6.694000000    -5.307000000     3.505000000
H    -5.383000000    -5.777000000     4.097000000
O    -5.303000000    -2.677000000     7.460000000
H    -5.677000000    -2.977000000     6.631000000
H    -5.723000000    -3.224000000     8.124000000
O    -2.635000000    -1.823000000     6.857000000
H    -3.143000000    -2.580000000     7.148000000
H    -2.553000000    -1.940000000     5.910000000
O    -4.603000000     0.170000000     6.255000000
H    -4.731000000    -0.345000000     7.053000000
H    -3.666000000     0.370000000     6.247000000
O    -5.530000000    -3.545000000     1.458000000
H    -5.617000000    -2.599000000     1.567000000
H    -5.342000000    -3.872000000     2.338000000
O    -3.396000000    -0.752000000     0.110000000
H    -2.889000000    -0.230000000     0.732000000
H    -2.782000000    -1.416000000    -0.203000000
O    -1.473000000    -4.323000000     8.637000000
H    -0.745000000    -3.859000000     9.051000000
H    -1.733000000    -3.759000000     7.909000000
O    -7.026000000    -3.130000000     5.251000000
H    -6.335000000    -3.614000000     4.799000000
H    -7.613000000    -3.807000000     5.587000000
O    -2.968000000    -8.448000000     4.829000000
H    -2.090000000    -8.772000000     5.030000000
H    -2.819000000    -7.629000000     4.355000000
O    -4.685000000    -1.716000000     3.533000000
H    -4.874000000    -1.279000000     4.363000000
H    -3.809000000    -2.083000000     3.650000000
O    -6.189000000    -0.888000000     1.610000000
H    -5.751000000    -1.145000000     2.422000000
H    -5.569000000    -0.298000000     1.180000000
O    -2.553000000    -6.217000000     3.292000000
H    -1.903000000    -6.731000000     2.812000000
H    -2.342000000    -5.308000000     3.081000000
O    -3.327000000    -6.495000000    -0.998000000
H    -2.864000000    -7.139000000    -0.460000000
H    -3.268000000    -5.680000000    -0.499000000
