215
-1427.57934
C    -4.253000000     1.815000000    -2.352000000
H    -3.692000000     1.327000000    -3.145000000
C    -3.665000000     2.770000000    -1.577000000
C    -4.362000000     3.270000000    -0.459000000
H    -3.901000000     4.045000000     0.148000000
C    -2.243000000     3.157000000    -1.857000000
O    -1.931000000     3.137000000    -3.265000000
H    -1.571000000     2.456000000    -1.341000000
O    -1.939000000     4.419000000    -1.284000000
C    -0.801000000     4.550000000    -0.599000000
C    -0.825000000     4.420000000     0.761000000
H    -1.810000000     4.331000000     1.212000000
C     0.353000000     4.374000000     1.537000000
O     0.235000000     4.073000000     2.859000000
C     1.584000000     4.394000000     0.885000000
C     2.900000000     4.401000000     1.648000000
H     3.675000000     4.948000000     1.107000000
C     3.319000000     2.927000000     1.764000000
C     4.198000000     2.447000000     0.816000000
H     4.506000000     3.121000000     0.021000000
H     2.795000000     4.801000000     2.659000000
C     1.609000000     4.523000000    -0.520000000
H     2.553000000     4.479000000    -1.056000000
C     0.414000000     4.735000000    -1.205000000
C     0.541000000     4.730000000    -2.743000000
H     1.422000000     5.282000000    -3.076000000
H    -0.304000000     5.335000000    -3.077000000
C     0.542000000     3.389000000    -3.342000000
C     1.721000000     2.766000000    -3.626000000
H     2.699000000     3.211000000    -3.465000000
C    -0.666000000     2.752000000    -3.689000000
C    -0.653000000     1.569000000    -4.370000000
H    -1.579000000     1.017000000    -4.511000000
C     0.520000000     0.884000000    -4.651000000
O     0.390000000    -0.460000000    -5.037000000
C     0.739000000    -1.498000000    -4.124000000
C    -0.175000000    -2.703000000    -4.076000000
C     0.262000000    -3.878000000    -3.452000000
H     1.205000000    -3.826000000    -2.915000000
C    -1.370000000    -2.602000000    -4.721000000
H    -1.611000000    -1.736000000    -5.334000000
O     2.140000000    -1.739000000    -4.355000000
H     0.641000000    -1.136000000    -3.090000000
C     1.734000000     1.492000000    -4.292000000
C     3.030000000     0.882000000    -4.635000000
H     3.820000000     1.599000000    -4.869000000
H     2.823000000     0.266000000    -5.513000000
C     3.393000000     0.013000000    -3.468000000
C     4.224000000     0.526000000    -2.488000000
H     4.560000000     1.559000000    -2.501000000
C     3.056000000    -1.246000000    -3.450000000
C     3.389000000    -2.077000000    -2.355000000
H     3.030000000    -3.090000000    -2.194000000
C     4.136000000    -1.500000000    -1.262000000
O     4.251000000    -2.334000000    -0.175000000
C     3.552000000    -1.934000000     1.072000000
C     3.084000000    -3.139000000     1.845000000
C     2.893000000    -4.378000000     1.206000000
H     3.048000000    -4.351000000     0.131000000
C     2.742000000    -3.067000000     3.214000000
H     2.723000000    -2.103000000     3.717000000
O     4.326000000    -1.057000000     1.838000000
H     2.630000000    -1.434000000     0.741000000
C     4.587000000    -0.217000000    -1.360000000
C     5.471000000     0.444000000    -0.304000000
H     5.972000000     1.290000000    -0.780000000
H     6.196000000    -0.239000000     0.143000000
C     4.622000000     1.072000000     0.789000000
C     4.125000000     0.291000000     1.845000000
C     3.345000000     0.795000000     2.813000000
H     3.082000000     0.081000000     3.589000000
C     2.855000000     2.094000000     2.812000000
O     1.919000000     2.523000000     3.730000000
C     0.617000000     2.690000000     3.210000000
H     0.535000000     2.019000000     2.342000000
C    -0.416000000     2.161000000     4.201000000
C    -1.662000000     2.764000000     4.400000000
H    -1.872000000     3.731000000     3.949000000
C    -0.197000000     0.938000000     4.922000000
H     0.808000000     0.526000000     4.957000000
C    -1.217000000     0.324000000     5.686000000
O    -1.105000000    -0.862000000     6.378000000
C    -2.394000000     1.022000000     5.841000000
H    -3.255000000     0.688000000     6.413000000
C    -2.666000000     2.204000000     5.187000000
O    -3.963000000     2.683000000     5.159000000
C    -4.491000000     3.496000000     4.203000000
C    -5.198000000     2.833000000     3.171000000
H    -5.399000000     1.774000000     3.036000000
C    -4.304000000     4.886000000     4.189000000
H    -3.811000000     5.283000000     5.073000000
C    -4.625000000     5.630000000     3.129000000
H    -4.354000000     6.683000000     3.130000000
C    -5.271000000     5.006000000     2.074000000
H    -5.498000000     5.690000000     1.260000000
C    -5.581000000     3.623000000     2.095000000
O    -6.263000000     3.071000000     1.096000000
C    -5.642000000     2.793000000    -0.130000000
C    -6.132000000     1.699000000    -0.821000000
H    -6.930000000     1.073000000    -0.432000000
C    -5.447000000     1.257000000    -1.941000000
O    -5.870000000     0.093000000    -2.475000000
C    -5.386000000    -0.443000000    -3.685000000
C    -4.650000000    -1.671000000    -3.661000000
H    -4.487000000    -2.196000000    -2.724000000
C    -5.673000000     0.207000000    -4.907000000
H    -6.236000000     1.136000000    -4.953000000
C    -5.342000000    -0.381000000    -6.068000000
H    -5.669000000     0.097000000    -6.988000000
C    -4.612000000    -1.530000000    -6.055000000
H    -4.411000000    -2.013000000    -7.007000000
C    -4.177000000    -2.160000000    -4.926000000
O    -3.495000000    -3.402000000    -5.115000000
C    -2.259000000    -3.665000000    -4.578000000
C    -1.822000000    -4.898000000    -4.018000000
H    -2.430000000    -5.799000000    -4.037000000
C    -0.612000000    -4.945000000    -3.346000000
O    -0.296000000    -6.000000000    -2.680000000
C     0.929000000    -6.280000000    -2.047000000
C     0.986000000    -6.402000000    -0.651000000
H     0.131000000    -6.103000000    -0.050000000
C     1.977000000    -6.739000000    -2.858000000
H     1.983000000    -6.655000000    -3.942000000
C     3.113000000    -7.265000000    -2.276000000
H     3.997000000    -7.435000000    -2.886000000
C     3.192000000    -7.356000000    -0.909000000
H     4.091000000    -7.813000000    -0.503000000
C     2.181000000    -6.838000000    -0.097000000
O     2.316000000    -6.693000000     1.200000000
C     2.373000000    -5.509000000     1.858000000
C     2.167000000    -5.467000000     3.287000000
H     2.029000000    -6.380000000     3.859000000
C     2.398000000    -4.239000000     3.927000000
O     2.272000000    -4.217000000     5.287000000
C     1.753000000    -3.148000000     6.011000000
C     2.556000000    -2.655000000     6.986000000
H     3.555000000    -3.084000000     6.995000000
C     2.199000000    -1.519000000     7.733000000
H     2.837000000    -1.019000000     8.456000000
C     0.905000000    -1.039000000     7.591000000
H     0.536000000    -0.183000000     8.150000000
C     0.045000000    -1.606000000     6.595000000
C     0.509000000    -2.586000000     5.786000000
H    -0.121000000    -2.924000000     4.967000000
C    -1.684000000    -2.394000000     1.913000000
H    -1.759000000    -3.463000000     2.089000000
C    -0.765000000    -1.911000000     0.952000000
H    -0.055000000    -2.587000000     0.484000000
C    -0.783000000    -0.569000000     0.635000000
H    -0.085000000    -0.177000000    -0.174000000
C    -1.638000000     0.302000000     1.289000000
H    -1.468000000     1.322000000     0.953000000
C    -2.427000000    -0.119000000     2.318000000
H    -3.164000000     0.524000000     2.792000000
C    -2.510000000    -1.483000000     2.591000000
C    -3.301000000    -2.038000000     3.778000000
O    -4.227000000    -1.420000000     4.318000000
O    -3.190000000    -3.233000000     4.052000000
O    -5.887000000    -3.423000000     5.421000000
H    -6.274000000    -2.620000000     5.768000000
H    -5.027000000    -3.155000000     5.097000000
O    -4.587000000    -1.295000000    -0.029000000
H    -3.689000000    -1.312000000     0.300000000
H    -5.092000000    -0.886000000     0.673000000
O    -4.245000000    -5.226000000     8.165000000
H    -3.703000000    -5.368000000     7.389000000
H    -4.249000000    -4.276000000     8.284000000
O    -7.060000000    -5.528000000     6.957000000
H    -6.849000000    -5.043000000     6.160000000
H    -6.229000000    -5.920000000     7.226000000
O    -3.526000000    -2.598000000     7.500000000
H    -4.198000000    -2.074000000     7.937000000
H    -3.215000000    -2.041000000     6.787000000
O    -2.063000000    -3.302000000    10.122000000
H    -2.051000000    -4.239000000     9.925000000
H    -2.445000000    -2.899000000     9.343000000
O    -0.501000000     2.028000000     8.091000000
H    -0.864000000     1.372000000     7.495000000
H    -1.188000000     2.691000000     8.164000000
O    -8.182000000    -2.179000000     0.982000000
H    -7.738000000    -2.920000000     1.395000000
H    -7.680000000    -1.413000000     1.262000000
O    -7.196000000    -4.053000000     3.090000000
H    -6.727000000    -3.738000000     3.863000000
H    -7.795000000    -4.719000000     3.427000000
O    -5.109000000    -0.697000000     8.086000000
H    -5.583000000    -0.958000000     8.875000000
H    -4.402000000    -0.137000000     8.405000000
O    -5.932000000    -3.426000000    -0.978000000
H    -5.460000000    -2.595000000    -0.928000000
H    -5.266000000    -4.090000000    -0.799000000
O    -4.114000000    -5.313000000     2.585000000
H    -4.934000000    -5.499000000     3.042000000
H    -3.674000000    -4.665000000     3.136000000
O    -6.337000000    -0.472000000     5.765000000
H    -6.041000000    -0.271000000     6.653000000
H    -5.568000000    -0.848000000     5.336000000
O    -7.153000000     1.927000000     7.175000000
H    -7.952000000     2.215000000     6.733000000
H    -6.577000000     1.641000000     6.466000000
O    -1.704000000    -6.665000000     1.727000000
H    -1.094000000    -6.142000000     2.247000000
H    -2.569000000    -6.333000000     1.968000000
O    -8.930000000    -0.147000000     5.280000000
H    -8.842000000     0.765000000     5.005000000
H    -8.110000000    -0.340000000     5.735000000
O    -6.520000000    -0.534000000     2.221000000
H    -7.244000000    -0.017000000     2.574000000
H    -6.034000000    -0.825000000     2.992000000
O    -1.997000000    -4.403000000     5.927000000
H    -2.524000000    -3.885000000     5.320000000
H    -2.180000000    -4.024000000     6.787000000
O    -0.702000000    -6.414000000     4.460000000
H    -1.052000000    -5.669000000     4.948000000
H    -0.053000000    -6.802000000     5.047000000
