215
-1422.45778
C    -4.347000000     1.689000000    -1.950000000
H    -4.046000000     1.175000000    -2.859000000
C    -3.651000000     2.633000000    -1.361000000
C    -4.121000000     3.263000000    -0.201000000
H    -3.527000000     4.013000000     0.315000000
C    -2.293000000     3.085000000    -1.880000000
O    -2.182000000     2.915000000    -3.348000000
H    -1.599000000     2.379000000    -1.401000000
O    -1.885000000     4.350000000    -1.337000000
C    -0.610000000     4.486000000    -0.754000000
C    -0.534000000     4.491000000     0.647000000
H    -1.424000000     4.347000000     1.254000000
C     0.710000000     4.456000000     1.259000000
O     0.768000000     4.114000000     2.618000000
C     1.892000000     4.573000000     0.489000000
C     3.270000000     4.411000000     1.196000000
H     3.996000000     5.118000000     0.789000000
C     3.665000000     2.920000000     1.312000000
C     4.394000000     2.377000000     0.333000000
H     4.792000000     2.935000000    -0.511000000
H     3.207000000     4.745000000     2.234000000
C     1.812000000     4.523000000    -0.881000000
H     2.663000000     4.518000000    -1.557000000
C     0.550000000     4.522000000    -1.521000000
C     0.404000000     4.507000000    -3.068000000
H     1.282000000     5.002000000    -3.489000000
H    -0.443000000     5.154000000    -3.305000000
C     0.306000000     3.085000000    -3.594000000
C     1.462000000     2.443000000    -3.930000000
H     2.432000000     2.909000000    -3.782000000
C    -0.944000000     2.496000000    -3.753000000
C    -1.008000000     1.235000000    -4.373000000
H    -1.973000000     0.786000000    -4.593000000
C     0.192000000     0.526000000    -4.610000000
O     0.107000000    -0.798000000    -4.996000000
C     0.436000000    -1.730000000    -4.039000000
C    -0.445000000    -2.934000000    -3.997000000
C    -0.059000000    -4.229000000    -3.666000000
H     0.944000000    -4.377000000    -3.276000000
C    -1.819000000    -2.784000000    -4.121000000
H    -2.209000000    -1.806000000    -4.390000000
O     1.805000000    -2.141000000    -4.281000000
H     0.510000000    -1.199000000    -3.079000000
C     1.385000000     1.212000000    -4.509000000
C     2.767000000     0.628000000    -4.863000000
H     3.502000000     1.381000000    -5.156000000
H     2.736000000     0.080000000    -5.807000000
C     3.243000000    -0.263000000    -3.725000000
C     4.147000000     0.320000000    -2.846000000
H     4.338000000     1.390000000    -2.890000000
C     2.797000000    -1.596000000    -3.581000000
C     3.193000000    -2.344000000    -2.500000000
H     2.652000000    -3.243000000    -2.214000000
C     4.127000000    -1.768000000    -1.603000000
O     4.323000000    -2.465000000    -0.384000000
C     3.562000000    -2.044000000     0.801000000
C     3.017000000    -3.258000000     1.623000000
C     2.305000000    -4.329000000     1.070000000
H     2.150000000    -4.292000000    -0.006000000
C     3.054000000    -3.221000000     3.000000000
H     3.576000000    -2.441000000     3.548000000
O     4.486000000    -1.182000000     1.607000000
H     2.613000000    -1.600000000     0.466000000
C     4.533000000    -0.453000000    -1.737000000
C     5.390000000     0.225000000    -0.712000000
H     6.091000000     0.930000000    -1.164000000
H     6.078000000    -0.517000000    -0.301000000
C     4.549000000     0.958000000     0.325000000
C     4.195000000     0.202000000     1.407000000
C     3.488000000     0.806000000     2.480000000
H     3.049000000     0.103000000     3.184000000
C     3.173000000     2.116000000     2.374000000
O     2.332000000     2.594000000     3.364000000
C     0.946000000     2.728000000     2.996000000
H     0.679000000     1.921000000     2.297000000
C     0.030000000     2.407000000     4.118000000
C    -1.132000000     3.209000000     4.333000000
H    -1.409000000     4.052000000     3.705000000
C     0.289000000     1.336000000     4.925000000
H     1.098000000     0.641000000     4.715000000
C    -0.578000000     0.999000000     5.938000000
O    -0.352000000    -0.245000000     6.513000000
C    -1.735000000     1.748000000     6.230000000
H    -2.363000000     1.456000000     7.068000000
C    -2.023000000     2.780000000     5.339000000
O    -3.107000000     3.563000000     5.582000000
C    -3.724000000     4.263000000     4.516000000
C    -4.412000000     3.496000000     3.550000000
H    -4.276000000     2.421000000     3.633000000
C    -3.880000000     5.613000000     4.545000000
H    -3.336000000     6.100000000     5.351000000
C    -4.462000000     6.275000000     3.440000000
H    -4.383000000     7.357000000     3.513000000
C    -5.106000000     5.549000000     2.408000000
H    -5.772000000     6.008000000     1.680000000
C    -5.049000000     4.140000000     2.504000000
O    -5.793000000     3.286000000     1.657000000
C    -5.285000000     2.777000000     0.455000000
C    -6.034000000     1.808000000    -0.225000000
H    -6.991000000     1.445000000     0.142000000
C    -5.527000000     1.214000000    -1.397000000
O    -6.235000000     0.188000000    -2.056000000
C    -5.750000000    -0.446000000    -3.206000000
C    -5.166000000    -1.713000000    -3.124000000
H    -5.098000000    -2.177000000    -2.144000000
C    -5.834000000     0.187000000    -4.424000000
H    -6.259000000     1.188000000    -4.430000000
C    -5.441000000    -0.510000000    -5.614000000
H    -5.393000000     0.069000000    -6.533000000
C    -5.027000000    -1.836000000    -5.527000000
H    -4.621000000    -2.239000000    -6.452000000
C    -4.748000000    -2.353000000    -4.268000000
O    -4.050000000    -3.537000000    -4.179000000
C    -2.777000000    -3.793000000    -4.010000000
C    -2.293000000    -5.089000000    -3.787000000
H    -3.020000000    -5.895000000    -3.721000000
C    -0.956000000    -5.270000000    -3.571000000
O    -0.495000000    -6.548000000    -3.352000000
C     0.479000000    -6.878000000    -2.419000000
C     0.269000000    -6.512000000    -1.088000000
H    -0.684000000    -6.035000000    -0.876000000
C     1.679000000    -7.515000000    -2.814000000
H     1.971000000    -7.811000000    -3.818000000
C     2.549000000    -7.867000000    -1.779000000
H     3.501000000    -8.317000000    -2.048000000
C     2.428000000    -7.374000000    -0.494000000
H     3.241000000    -7.513000000     0.215000000
C     1.217000000    -6.748000000    -0.111000000
O     0.940000000    -6.323000000     1.137000000
C     1.599000000    -5.323000000     1.802000000
C     1.577000000    -5.232000000     3.168000000
H     1.148000000    -5.968000000     3.843000000
C     2.287000000    -4.164000000     3.715000000
O     2.259000000    -4.034000000     5.042000000
C     2.104000000    -2.923000000     5.728000000
C     3.085000000    -2.578000000     6.684000000
H     3.986000000    -3.172000000     6.819000000
C     2.920000000    -1.424000000     7.517000000
H     3.739000000    -1.178000000     8.188000000
C     1.749000000    -0.657000000     7.377000000
H     1.535000000     0.130000000     8.096000000
C     0.836000000    -0.975000000     6.481000000
C     0.960000000    -2.079000000     5.690000000
H     0.076000000    -2.243000000     5.078000000
C    -0.917000000    -1.582000000     2.433000000
H    -0.703000000    -2.469000000     3.024000000
C    -0.135000000    -1.024000000     1.443000000
H     0.835000000    -1.422000000     1.157000000
C    -0.664000000     0.035000000     0.704000000
H    -0.106000000     0.365000000    -0.123000000
C    -1.800000000     0.706000000     1.171000000
H    -2.043000000     1.602000000     0.606000000
C    -2.540000000     0.230000000     2.252000000
H    -3.533000000     0.629000000     2.445000000
C    -2.077000000    -0.866000000     2.907000000
C    -3.026000000    -1.464000000     3.920000000
O    -4.115000000    -1.103000000     4.244000000
O    -2.653000000    -2.522000000     4.386000000
O    -4.967000000    -3.970000000     4.484000000
H    -4.098000000    -3.593000000     4.348000000
H    -5.570000000    -3.320000000     4.125000000
O    -5.817000000    -4.082000000     8.258000000
H    -6.443000000    -4.629000000     8.732000000
H    -5.558000000    -4.612000000     7.505000000
O    -4.559000000    -2.176000000     0.480000000
H    -4.283000000    -1.317000000     0.801000000
H    -5.403000000    -2.330000000     0.905000000
O    -4.362000000    -6.643000000     7.130000000
H    -3.870000000    -7.398000000     6.805000000
H    -4.837000000    -6.320000000     6.364000000
O    -5.841000000    -6.402000000     4.766000000
H    -5.569000000    -5.501000000     4.589000000
H    -6.794000000    -6.355000000     4.833000000
O    -7.374000000    -3.086000000     5.901000000
H    -7.233000000    -2.139000000     5.912000000
H    -6.544000000    -3.454000000     6.204000000
O    -2.215000000    -2.917000000     6.973000000
H    -2.714000000    -2.183000000     7.332000000
H    -2.400000000    -2.897000000     6.035000000
O    -1.802000000    -4.376000000     9.377000000
H    -1.692000000    -5.287000000     9.106000000
H    -2.179000000    -3.942000000     8.611000000
O    -8.677000000    -3.294000000     1.283000000
H    -8.352000000    -4.194000000     1.263000000
H    -8.237000000    -2.897000000     2.034000000
O    -6.568000000    -5.433000000     0.996000000
H    -5.893000000    -5.571000000     1.660000000
H    -7.303000000    -5.974000000     1.286000000
O    -3.104000000    -0.816000000     8.613000000
H    -3.823000000    -0.901000000     9.239000000
H    -2.536000000    -0.144000000     8.991000000
O    -3.108000000    -4.162000000    -0.523000000
H    -2.386000000    -3.778000000    -1.020000000
H    -3.529000000    -3.415000000    -0.096000000
O    -0.369000000    -4.978000000     6.774000000
H     0.482000000    -4.606000000     7.006000000
H    -0.989000000    -4.262000000     6.908000000
O    -4.766000000    -0.036000000     6.519000000
H    -4.172000000    -0.466000000     7.134000000
H    -4.654000000    -0.519000000     5.700000000
O    -5.505000000     2.733000000     8.174000000
H    -6.252000000     3.312000000     8.021000000
H    -5.571000000     2.071000000     7.486000000
O    -7.333000000     0.725000000     5.569000000
H    -7.353000000     1.424000000     4.915000000
H    -6.401000000     0.554000000     5.709000000
O    -6.383000000    -1.618000000     2.370000000
H    -7.189000000    -1.183000000     2.092000000
H    -6.048000000    -1.070000000     3.080000000
O    -1.410000000    -4.795000000     3.856000000
H    -1.983000000    -4.029000000     3.816000000
H    -1.161000000    -4.860000000     4.778000000
O    -1.677000000    -7.109000000     2.572000000
H    -2.597000000    -7.072000000     2.834000000
H    -1.362000000    -6.212000000     2.680000000
