215
-1459.14439
C    -4.334000000     1.847000000    -1.684000000
H    -4.003000000     1.422000000    -2.628000000
C    -3.534000000     2.854000000    -1.110000000
C    -3.827000000     3.282000000     0.226000000
H    -3.217000000     4.029000000     0.728000000
C    -2.177000000     3.312000000    -1.792000000
O    -2.137000000     3.301000000    -3.241000000
H    -1.486000000     2.520000000    -1.470000000
O    -1.726000000     4.591000000    -1.311000000
C    -0.453000000     4.560000000    -0.773000000
C    -0.212000000     4.336000000     0.550000000
H    -1.021000000     4.320000000     1.275000000
C     1.103000000     4.265000000     1.044000000
O     1.262000000     4.036000000     2.375000000
C     2.184000000     4.251000000     0.171000000
C     3.696000000     4.066000000     0.695000000
H     4.365000000     4.440000000    -0.082000000
C     4.120000000     2.636000000     0.943000000
C     4.758000000     1.868000000    -0.078000000
H     4.947000000     2.312000000    -1.052000000
H     3.842000000     4.749000000     1.535000000
C     1.994000000     4.395000000    -1.201000000
H     2.860000000     4.337000000    -1.856000000
C     0.668000000     4.621000000    -1.646000000
C     0.480000000     4.708000000    -3.164000000
H     1.393000000     5.052000000    -3.654000000
H    -0.357000000     5.358000000    -3.427000000
C     0.310000000     3.274000000    -3.784000000
C     1.390000000     2.498000000    -4.235000000
H     2.372000000     2.964000000    -4.241000000
C    -0.973000000     2.686000000    -3.721000000
C    -1.159000000     1.405000000    -4.217000000
H    -2.161000000     0.989000000    -4.282000000
C    -0.098000000     0.620000000    -4.652000000
O    -0.340000000    -0.701000000    -4.826000000
C    -0.141000000    -1.577000000    -3.699000000
C    -1.238000000    -2.585000000    -3.666000000
C    -0.925000000    -3.844000000    -3.169000000
H     0.114000000    -4.042000000    -2.918000000
C    -2.520000000    -2.303000000    -4.119000000
H    -2.790000000    -1.344000000    -4.553000000
O     1.186000000    -2.191000000    -3.947000000
H    -0.012000000    -1.012000000    -2.765000000
C     1.217000000     1.137000000    -4.603000000
C     2.422000000     0.294000000    -4.941000000
H     3.255000000     0.911000000    -5.286000000
H     2.053000000    -0.441000000    -5.660000000
C     2.894000000    -0.518000000    -3.739000000
C     3.935000000     0.023000000    -3.011000000
H     4.412000000     0.904000000    -3.431000000
C     2.273000000    -1.653000000    -3.326000000
C     2.702000000    -2.376000000    -2.275000000
H     2.205000000    -3.256000000    -1.876000000
C     3.751000000    -1.921000000    -1.524000000
O     4.184000000    -2.636000000    -0.403000000
C     3.699000000    -2.268000000     0.894000000
C     3.271000000    -3.543000000     1.699000000
C     2.514000000    -4.508000000     1.102000000
H     2.308000000    -4.460000000     0.036000000
C     3.296000000    -3.518000000     3.069000000
H     3.844000000    -2.688000000     3.508000000
O     4.745000000    -1.400000000     1.521000000
H     2.728000000    -1.776000000     0.734000000
C     4.343000000    -0.680000000    -1.837000000
C     5.561000000    -0.298000000    -0.980000000
H     6.264000000     0.288000000    -1.576000000
H     6.151000000    -1.078000000    -0.495000000
C     4.974000000     0.504000000     0.127000000
C     4.636000000    -0.047000000     1.298000000
C     4.059000000     0.691000000     2.346000000
H     3.692000000     0.118000000     3.195000000
C     3.770000000     2.005000000     2.172000000
O     3.043000000     2.690000000     3.133000000
C     1.631000000     2.735000000     2.870000000
H     1.306000000     2.016000000     2.104000000
C     0.807000000     2.303000000     4.112000000
C    -0.184000000     3.199000000     4.624000000
H    -0.243000000     4.216000000     4.243000000
C     0.860000000     1.013000000     4.643000000
H     1.594000000     0.334000000     4.216000000
C    -0.096000000     0.551000000     5.560000000
O    -0.205000000    -0.813000000     5.880000000
C    -1.140000000     1.428000000     5.916000000
H    -1.944000000     1.032000000     6.531000000
C    -1.176000000     2.758000000     5.527000000
O    -2.330000000     3.542000000     5.843000000
C    -3.039000000     4.157000000     4.830000000
C    -3.857000000     3.370000000     3.980000000
H    -4.035000000     2.310000000     4.148000000
C    -2.897000000     5.495000000     4.595000000
H    -2.362000000     6.135000000     5.292000000
C    -3.456000000     6.107000000     3.484000000
H    -3.280000000     7.162000000     3.293000000
C    -4.399000000     5.407000000     2.706000000
H    -4.889000000     5.812000000     1.824000000
C    -4.478000000     4.010000000     2.944000000
O    -5.298000000     3.205000000     2.119000000
C    -4.960000000     2.812000000     0.823000000
C    -5.898000000     2.028000000     0.136000000
H    -6.887000000     1.829000000     0.541000000
C    -5.565000000     1.453000000    -1.125000000
O    -6.356000000     0.530000000    -1.735000000
C    -6.166000000    -0.015000000    -2.941000000
C    -5.379000000    -1.129000000    -3.140000000
H    -4.757000000    -1.531000000    -2.344000000
C    -6.844000000     0.547000000    -3.925000000
H    -7.390000000     1.464000000    -3.721000000
C    -6.936000000    -0.069000000    -5.171000000
H    -7.566000000     0.383000000    -5.932000000
C    -6.218000000    -1.232000000    -5.352000000
H    -6.397000000    -1.810000000    -6.256000000
C    -5.430000000    -1.787000000    -4.363000000
O    -4.724000000    -3.019000000    -4.585000000
C    -3.518000000    -3.318000000    -4.031000000
C    -3.224000000    -4.518000000    -3.530000000
H    -3.979000000    -5.293000000    -3.424000000
C    -1.967000000    -4.758000000    -3.044000000
O    -1.738000000    -5.945000000    -2.428000000
C    -0.555000000    -6.252000000    -1.961000000
C    -0.293000000    -6.306000000    -0.580000000
H    -1.037000000    -6.026000000     0.161000000
C     0.393000000    -6.679000000    -2.862000000
H     0.169000000    -6.763000000    -3.922000000
C     1.657000000    -7.168000000    -2.394000000
H     2.376000000    -7.502000000    -3.137000000
C     1.973000000    -7.091000000    -1.037000000
H     2.947000000    -7.323000000    -0.614000000
C     0.989000000    -6.711000000    -0.112000000
O     1.316000000    -6.660000000     1.225000000
C     2.002000000    -5.625000000     1.833000000
C     2.035000000    -5.573000000     3.205000000
H     1.618000000    -6.322000000     3.875000000
C     2.676000000    -4.510000000     3.768000000
O     2.665000000    -4.484000000     5.118000000
C     2.447000000    -3.328000000     5.829000000
C     3.446000000    -2.697000000     6.538000000
H     4.436000000    -3.142000000     6.598000000
C     3.154000000    -1.469000000     7.127000000
H     3.866000000    -0.947000000     7.762000000
C     1.891000000    -0.917000000     7.057000000
H     1.692000000     0.115000000     7.335000000
C     0.928000000    -1.480000000     6.231000000
C     1.234000000    -2.719000000     5.692000000
H     0.530000000    -3.321000000     5.124000000
C    -0.490000000    -2.739000000     1.647000000
H    -0.371000000    -3.811000000     1.785000000
C    -0.052000000    -2.122000000     0.495000000
H     0.514000000    -2.766000000    -0.173000000
C    -0.225000000    -0.735000000     0.344000000
H     0.376000000    -0.187000000    -0.484000000
C    -1.168000000    -0.081000000     1.085000000
H    -1.452000000     0.952000000     0.899000000
C    -1.711000000    -0.712000000     2.219000000
H    -2.426000000    -0.160000000     2.823000000
C    -1.363000000    -2.031000000     2.525000000
C    -1.921000000    -2.726000000     3.748000000
O    -2.696000000    -2.174000000     4.522000000
O    -1.631000000    -3.913000000     3.978000000
O    -7.065000000    -6.967000000     2.528000000
H    -6.456000000    -6.248000000     2.358000000
H    -7.162000000    -6.979000000     3.480000000
O    -5.286000000    -3.272000000     5.184000000
H    -4.420000000    -2.994000000     4.884000000
H    -5.206000000    -3.317000000     6.137000000
O    -3.737000000    -6.988000000     5.541000000
H    -3.225000000    -6.527000000     4.876000000
H    -3.832000000    -7.876000000     5.197000000
O    -2.754000000    -5.217000000     1.968000000
H    -2.148000000    -4.944000000     2.658000000
H    -3.623000000    -5.098000000     2.352000000
O    -3.978000000    -5.004000000     7.281000000
H    -3.076000000    -4.684000000     7.284000000
H    -4.006000000    -5.632000000     6.560000000
O    -4.990000000    -4.643000000     2.872000000
H    -5.645000000    -4.014000000     2.567000000
H    -4.864000000    -4.428000000     3.797000000
O    -7.904000000    -2.072000000     6.068000000
H    -8.332000000    -1.658000000     5.319000000
H    -7.090000000    -2.428000000     5.713000000
O    -1.591000000    -3.687000000     6.644000000
H    -2.019000000    -2.964000000     7.103000000
H    -1.615000000    -3.432000000     5.721000000
O    -4.053000000    -3.423000000     9.421000000
H    -4.031000000    -4.225000000     8.898000000
H    -4.107000000    -2.718000000     8.776000000
O    -7.309000000    -2.753000000     1.913000000
H    -7.087000000    -2.881000000     0.991000000
H    -6.552000000    -2.298000000     2.281000000
O    -4.100000000    -1.289000000     7.938000000
H    -5.002000000    -0.992000000     8.063000000
H    -3.605000000    -0.848000000     8.628000000
O    -6.125000000    -3.147000000    -0.537000000
H    -5.198000000    -3.321000000    -0.371000000
H    -6.476000000    -3.986000000    -0.836000000
O    -3.453000000    -3.941000000    -0.356000000
H    -3.161000000    -4.216000000     0.513000000
H    -2.650000000    -3.684000000    -0.808000000
O     0.045000000    -5.654000000     7.599000000
H     0.747000000    -5.209000000     8.074000000
H    -0.569000000    -4.956000000     7.371000000
O    -4.415000000     0.222000000     5.447000000
H    -4.324000000    -0.010000000     6.371000000
H    -3.611000000    -0.099000000     5.039000000
O    -6.721000000     1.377000000     5.078000000
H    -6.843000000     1.098000000     4.170000000
H    -5.896000000     0.971000000     5.344000000
O    -5.227000000    -1.276000000     2.640000000
H    -4.820000000    -0.625000000     2.068000000
H    -4.669000000    -1.292000000     3.418000000
O    -0.910000000    -6.349000000     4.888000000
H    -1.211000000    -5.530000000     4.493000000
H    -0.257000000    -6.077000000     5.533000000
O    -2.914000000    -7.665000000     0.894000000
H    -2.961000000    -8.323000000     1.588000000
H    -2.737000000    -6.844000000     1.353000000
