215
-1492.46274
C     3.655000000     2.830000000    -1.685000000
H     3.315000000     1.965000000    -2.248000000
C     4.038000000     2.537000000    -0.360000000
C     4.198000000     3.658000000     0.482000000
H     4.398000000     3.529000000     1.543000000
C     4.121000000     1.124000000     0.223000000
O     4.847000000     0.321000000    -0.699000000
H     3.119000000     0.675000000     0.296000000
O     4.697000000     1.039000000     1.541000000
C     4.033000000     0.310000000     2.495000000
C     3.124000000     0.952000000     3.313000000
H     3.080000000     2.034000000     3.211000000
C     2.318000000     0.217000000     4.160000000
O     1.341000000     0.922000000     4.762000000
C     2.394000000    -1.195000000     4.175000000
C     1.352000000    -2.013000000     5.010000000
H     1.739000000    -3.014000000     5.208000000
C     0.116000000    -2.274000000     4.305000000
C     0.114000000    -3.461000000     3.576000000
H     1.016000000    -4.063000000     3.501000000
H     1.170000000    -1.503000000     5.958000000
C     3.322000000    -1.834000000     3.326000000
H     3.294000000    -2.916000000     3.225000000
C     4.142000000    -1.104000000     2.473000000
C     5.011000000    -1.831000000     1.465000000
H     5.226000000    -2.828000000     1.856000000
H     5.971000000    -1.339000000     1.296000000
C     4.354000000    -1.992000000     0.108000000
C     3.779000000    -3.211000000    -0.195000000
H     3.629000000    -3.963000000     0.575000000
C     4.370000000    -0.956000000    -0.870000000
C     3.769000000    -1.251000000    -2.138000000
H     3.767000000    -0.545000000    -2.965000000
C     3.138000000    -2.467000000    -2.389000000
O     2.386000000    -2.512000000    -3.543000000
C     0.938000000    -2.346000000    -3.351000000
C     0.327000000    -1.450000000    -4.412000000
C    -1.059000000    -1.589000000    -4.665000000
H    -1.652000000    -2.369000000    -4.193000000
C     1.101000000    -0.458000000    -5.088000000
H     2.180000000    -0.333000000    -5.040000000
O     0.256000000    -3.582000000    -3.323000000
H     0.901000000    -1.891000000    -2.351000000
C     3.104000000    -3.466000000    -1.419000000
C     2.319000000    -4.752000000    -1.531000000
H     2.801000000    -5.529000000    -0.935000000
H     2.500000000    -5.085000000    -2.556000000
C     0.835000000    -4.595000000    -1.190000000
C     0.425000000    -5.116000000     0.058000000
H     1.163000000    -5.489000000     0.764000000
C    -0.107000000    -4.103000000    -2.076000000
C    -1.431000000    -4.021000000    -1.666000000
H    -2.168000000    -3.566000000    -2.323000000
C    -1.741000000    -4.311000000    -0.296000000
O    -2.956000000    -4.058000000     0.140000000
C    -3.260000000    -2.815000000     0.862000000
C    -4.576000000    -2.200000000     0.337000000
C    -4.966000000    -2.589000000    -0.905000000
H    -4.422000000    -3.322000000    -1.496000000
C    -5.293000000    -1.343000000     1.123000000
H    -4.976000000    -1.131000000     2.140000000
O    -3.276000000    -3.098000000     2.234000000
H    -2.467000000    -2.078000000     0.669000000
C    -0.829000000    -4.872000000     0.620000000
C    -1.133000000    -5.060000000     2.067000000
H    -0.427000000    -5.687000000     2.615000000
H    -2.137000000    -5.487000000     2.130000000
C    -1.079000000    -3.775000000     2.935000000
C    -2.136000000    -2.833000000     2.888000000
C    -2.033000000    -1.610000000     3.531000000
H    -2.859000000    -0.907000000     3.463000000
C    -0.880000000    -1.288000000     4.284000000
O    -0.766000000    -0.028000000     4.857000000
C     0.095000000     0.853000000     4.118000000
H     0.233000000     0.336000000     3.157000000
C    -0.549000000     2.212000000     3.911000000
C     0.166000000     3.396000000     3.864000000
H     1.186000000     3.422000000     4.239000000
C    -1.864000000     2.253000000     3.465000000
H    -2.413000000     1.316000000     3.427000000
C    -2.431000000     3.443000000     2.994000000
O    -3.704000000     3.406000000     2.421000000
C    -1.758000000     4.650000000     3.162000000
H    -2.286000000     5.582000000     2.977000000
C    -0.436000000     4.652000000     3.650000000
O     0.202000000     5.798000000     3.681000000
C     1.591000000     5.905000000     3.465000000
C     2.186000000     5.781000000     2.194000000
H     1.555000000     5.716000000     1.311000000
C     2.407000000     6.051000000     4.572000000
H     2.039000000     6.065000000     5.595000000
C     3.756000000     6.277000000     4.425000000
H     4.400000000     6.520000000     5.267000000
C     4.325000000     6.337000000     3.128000000
H     5.377000000     6.601000000     3.048000000
C     3.543000000     6.030000000     2.065000000
O     4.175000000     6.059000000     0.837000000
C     4.115000000     4.938000000    -0.035000000
C     3.839000000     5.188000000    -1.373000000
H     3.795000000     6.243000000    -1.631000000
C     3.483000000     4.126000000    -2.167000000
O     2.948000000     4.395000000    -3.421000000
C     3.089000000     3.643000000    -4.556000000
C     2.065000000     2.833000000    -5.041000000
H     1.148000000     2.867000000    -4.458000000
C     4.305000000     3.522000000    -5.165000000
H     5.152000000     4.024000000    -4.705000000
C     4.569000000     2.673000000    -6.305000000
H     5.562000000     2.441000000    -6.681000000
C     3.508000000     1.943000000    -6.838000000
H     3.733000000     1.359000000    -7.727000000
C     2.249000000     2.047000000    -6.212000000
O     1.074000000     1.365000000    -6.630000000
C     0.459000000     0.388000000    -5.921000000
C    -0.920000000     0.257000000    -6.185000000
H    -1.446000000     0.992000000    -6.791000000
C    -1.633000000    -0.737000000    -5.585000000
O    -2.999000000    -0.812000000    -5.881000000
C    -3.817000000    -1.849000000    -5.258000000
C    -4.696000000    -1.576000000    -4.253000000
H    -4.810000000    -0.544000000    -3.932000000
C    -3.639000000    -3.146000000    -5.735000000
H    -2.976000000    -3.439000000    -6.544000000
C    -4.476000000    -4.169000000    -5.325000000
H    -4.407000000    -5.163000000    -5.760000000
C    -5.364000000    -3.887000000    -4.284000000
H    -5.958000000    -4.673000000    -3.824000000
C    -5.476000000    -2.599000000    -3.722000000
O    -6.454000000    -2.382000000    -2.730000000
C    -6.105000000    -2.002000000    -1.436000000
C    -6.862000000    -1.083000000    -0.660000000
H    -7.722000000    -0.481000000    -0.940000000
C    -6.435000000    -0.742000000     0.649000000
O    -7.090000000     0.254000000     1.337000000
C    -6.457000000     1.015000000     2.297000000
C    -6.768000000     0.892000000     3.627000000
H    -7.737000000     0.469000000     3.880000000
C    -6.074000000     1.620000000     4.639000000
H    -6.181000000     1.521000000     5.716000000
C    -5.080000000     2.469000000     4.201000000
H    -4.448000000     2.977000000     4.925000000
C    -4.705000000     2.576000000     2.830000000
C    -5.511000000     1.944000000     1.880000000
H    -5.197000000     2.069000000     0.847000000
C    -1.466000000    -0.134000000    -1.109000000
H    -2.019000000    -0.630000000    -1.902000000
C    -0.509000000    -0.776000000    -0.299000000
H    -0.311000000    -1.844000000    -0.357000000
C     0.278000000    -0.072000000     0.550000000
H     1.026000000    -0.610000000     1.170000000
C     0.209000000     1.303000000     0.607000000
H     0.846000000     1.834000000     1.310000000
C    -0.755000000     1.978000000    -0.099000000
H    -0.898000000     3.044000000     0.061000000
C    -1.557000000     1.303000000    -1.043000000
C    -2.578000000     2.050000000    -1.822000000
O    -2.851000000     3.252000000    -1.661000000
O    -3.174000000     1.422000000    -2.650000000
O    -0.609000000     6.337000000     0.487000000
H    -0.684000000     6.038000000    -0.419000000
H    -1.389000000     6.873000000     0.628000000
O    -8.103000000     5.016000000     0.168000000
H    -7.718000000     4.982000000    -0.707000000
H    -8.580000000     5.846000000     0.188000000
O    -4.048000000     4.888000000    -0.044000000
H    -3.727000000     4.283000000    -0.714000000
H    -3.768000000     4.499000000     0.784000000
O    -3.117000000     7.264000000    -0.088000000
H    -3.515000000     6.395000000    -0.138000000
H    -3.250000000     7.639000000    -0.959000000
O    -1.215000000     6.157000000    -5.021000000
H    -2.018000000     5.649000000    -5.140000000
H    -0.764000000     6.092000000    -5.863000000
O    -8.095000000     5.034000000    -3.976000000
H    -7.416000000     5.224000000    -3.329000000
H    -8.820000000     5.613000000    -3.739000000
O     1.906000000     7.969000000    -0.134000000
H     1.395000000     8.449000000     0.517000000
H     1.390000000     7.182000000    -0.311000000
O    -5.690000000     2.101000000    -3.079000000
H    -4.776000000     1.862000000    -2.927000000
H    -5.734000000     3.033000000    -2.864000000
O    -3.088000000     7.562000000    -2.761000000
H    -2.320000000     8.119000000    -2.630000000
H    -2.770000000     6.838000000    -3.300000000
O    -3.559000000     1.987000000    -5.270000000
H    -3.427000000     1.699000000    -4.367000000
H    -3.367000000     1.213000000    -5.799000000
O    -6.348000000     3.662000000    -7.931000000
H    -6.463000000     2.785000000    -8.298000000
H    -6.252000000     3.518000000    -6.990000000
O    -5.766000000     7.839000000    -3.245000000
H    -4.824000000     7.789000000    -3.083000000
H    -5.870000000     8.592000000    -3.826000000
O    -6.467000000     5.717000000    -1.850000000
H    -5.696000000     5.399000000    -1.380000000
H    -6.205000000     6.575000000    -2.184000000
O    -3.377000000     4.496000000    -3.918000000
H    -3.645000000     3.787000000    -4.502000000
H    -3.201000000     4.064000000    -3.082000000
O    -4.124000000     7.543000000     2.470000000
H    -4.955000000     7.997000000     2.616000000
H    -3.965000000     7.631000000     1.531000000
O     0.011000000     3.693000000    -7.358000000
H     0.401000000     2.859000000    -7.097000000
H    -0.925000000     3.506000000    -7.436000000
O    -2.712000000     3.737000000    -7.510000000
H    -3.368000000     3.402000000    -6.899000000
H    -2.884000000     4.678000000    -7.554000000
O    -7.162000000     2.405000000    -5.200000000
H    -7.543000000     3.136000000    -4.715000000
H    -6.518000000     2.028000000    -4.600000000
O    -0.975000000     5.159000000    -2.097000000
H    -0.800000000     5.182000000    -3.038000000
H    -1.653000000     4.491000000    -1.996000000
