215
-1438.99694
C    -4.396000000     2.504000000    -1.940000000
H    -4.224000000     2.452000000    -3.012000000
C    -3.446000000     3.019000000    -1.060000000
C    -3.725000000     2.918000000     0.284000000
H    -2.959000000     3.084000000     1.037000000
C    -2.072000000     3.467000000    -1.481000000
O    -1.913000000     3.756000000    -2.836000000
H    -1.425000000     2.633000000    -1.173000000
O    -1.529000000     4.586000000    -0.766000000
C    -0.217000000     4.632000000    -0.319000000
C    -0.054000000     4.490000000     1.044000000
H    -0.950000000     4.399000000     1.653000000
C     1.193000000     4.502000000     1.645000000
O     1.287000000     4.107000000     2.961000000
C     2.333000000     4.458000000     0.811000000
C     3.749000000     4.222000000     1.235000000
H     4.519000000     4.611000000     0.566000000
C     4.005000000     2.665000000     1.367000000
C     4.536000000     2.019000000     0.251000000
H     4.855000000     2.581000000    -0.623000000
H     3.968000000     4.771000000     2.153000000
C     2.161000000     4.526000000    -0.526000000
H     3.035000000     4.450000000    -1.168000000
C     0.895000000     4.650000000    -1.160000000
C     0.714000000     4.815000000    -2.658000000
H     1.657000000     5.178000000    -3.073000000
H    -0.097000000     5.532000000    -2.806000000
C     0.427000000     3.530000000    -3.429000000
C     1.437000000     2.705000000    -3.887000000
H     2.477000000     2.974000000    -3.720000000
C    -0.897000000     3.087000000    -3.509000000
C    -1.209000000     1.802000000    -3.994000000
H    -2.223000000     1.409000000    -4.026000000
C    -0.206000000     0.981000000    -4.467000000
O    -0.521000000    -0.343000000    -4.755000000
C    -0.167000000    -1.488000000    -3.909000000
C    -1.290000000    -2.588000000    -4.000000000
C    -0.934000000    -3.845000000    -3.720000000
H     0.103000000    -4.077000000    -3.490000000
C    -2.636000000    -2.236000000    -4.295000000
H    -2.948000000    -1.204000000    -4.432000000
O     1.127000000    -1.951000000    -4.261000000
H    -0.124000000    -0.980000000    -2.934000000
C     1.155000000     1.454000000    -4.460000000
C     2.358000000     0.576000000    -4.885000000
H     3.131000000     1.230000000    -5.294000000
H     2.115000000    -0.103000000    -5.705000000
C     2.861000000    -0.290000000    -3.790000000
C     3.788000000     0.224000000    -2.920000000
H     4.083000000     1.243000000    -3.157000000
C     2.246000000    -1.506000000    -3.522000000
C     2.598000000    -2.299000000    -2.416000000
H     1.959000000    -3.115000000    -2.086000000
C     3.606000000    -1.802000000    -1.622000000
O     3.948000000    -2.598000000    -0.487000000
C     3.393000000    -2.152000000     0.726000000
C     2.768000000    -3.303000000     1.476000000
C     2.198000000    -4.370000000     0.753000000
H     2.285000000    -4.490000000    -0.323000000
C     2.702000000    -3.230000000     2.876000000
H     3.142000000    -2.318000000     3.271000000
O     4.405000000    -1.435000000     1.407000000
H     2.570000000    -1.481000000     0.438000000
C     4.271000000    -0.577000000    -1.879000000
C     5.381000000    -0.078000000    -0.906000000
H     6.121000000     0.545000000    -1.414000000
H     5.953000000    -0.980000000    -0.680000000
C     4.767000000     0.634000000     0.294000000
C     4.328000000    -0.065000000     1.382000000
C     3.755000000     0.624000000     2.467000000
H     3.417000000     0.066000000     3.336000000
C     3.654000000     1.968000000     2.470000000
O     3.016000000     2.593000000     3.436000000
C     1.556000000     2.742000000     3.254000000
H     1.251000000     2.036000000     2.468000000
C     0.770000000     2.331000000     4.468000000
C    -0.584000000     2.672000000     4.551000000
H    -1.037000000     3.418000000     3.903000000
C     1.358000000     1.387000000     5.372000000
H     2.392000000     1.099000000     5.203000000
C     0.569000000     0.937000000     6.369000000
O     1.098000000     0.020000000     7.256000000
C    -0.738000000     1.388000000     6.579000000
H    -1.262000000     1.060000000     7.473000000
C    -1.304000000     2.267000000     5.655000000
O    -2.526000000     2.699000000     5.916000000
C    -3.387000000     3.180000000     4.933000000
C    -3.906000000     2.330000000     3.995000000
H    -3.690000000     1.266000000     4.022000000
C    -3.807000000     4.524000000     5.001000000
H    -3.407000000     5.153000000     5.793000000
C    -4.719000000     4.984000000     4.067000000
H    -4.959000000     6.044000000     4.085000000
C    -5.021000000     4.201000000     3.023000000
H    -5.613000000     4.651000000     2.230000000
C    -4.641000000     2.894000000     2.972000000
O    -5.111000000     2.082000000     2.039000000
C    -4.954000000     2.349000000     0.689000000
C    -5.839000000     1.761000000    -0.221000000
H    -6.683000000     1.241000000     0.224000000
C    -5.549000000     1.854000000    -1.603000000
O    -6.338000000     1.171000000    -2.503000000
C    -5.991000000     0.433000000    -3.659000000
C    -5.489000000    -0.913000000    -3.526000000
H    -5.401000000    -1.433000000    -2.576000000
C    -6.005000000     0.988000000    -4.965000000
H    -6.319000000     2.009000000    -5.166000000
C    -5.798000000     0.181000000    -6.129000000
H    -5.686000000     0.650000000    -7.104000000
C    -5.501000000    -1.135000000    -5.964000000
H    -5.372000000    -1.766000000    -6.839000000
C    -5.365000000    -1.655000000    -4.676000000
O    -4.930000000    -2.975000000    -4.612000000
C    -3.567000000    -3.275000000    -4.292000000
C    -3.181000000    -4.578000000    -4.057000000
H    -3.918000000    -5.377000000    -4.055000000
C    -1.847000000    -4.863000000    -3.703000000
O    -1.480000000    -6.157000000    -3.420000000
C    -0.368000000    -6.448000000    -2.607000000
C    -0.281000000    -6.210000000    -1.278000000
H    -1.136000000    -5.695000000    -0.848000000
C     0.693000000    -7.026000000    -3.262000000
H     0.619000000    -7.077000000    -4.345000000
C     1.825000000    -7.327000000    -2.595000000
H     2.633000000    -7.803000000    -3.144000000
C     1.840000000    -7.246000000    -1.207000000
H     2.711000000    -7.622000000    -0.677000000
C     0.806000000    -6.600000000    -0.519000000
O     0.969000000    -6.402000000     0.791000000
C     1.533000000    -5.295000000     1.474000000
C     1.360000000    -5.287000000     2.869000000
H     0.735000000    -5.986000000     3.418000000
C     1.901000000    -4.180000000     3.489000000
O     1.583000000    -4.135000000     4.827000000
C     2.070000000    -3.134000000     5.622000000
C     3.396000000    -3.231000000     6.064000000
H     3.997000000    -4.131000000     5.962000000
C     3.901000000    -2.192000000     6.800000000
H     4.919000000    -2.280000000     7.170000000
C     3.086000000    -1.166000000     7.251000000
H     3.452000000    -0.354000000     7.874000000
C     1.798000000    -1.039000000     6.763000000
C     1.286000000    -1.986000000     5.859000000
H     0.304000000    -1.849000000     5.414000000
C    -1.020000000    -2.279000000     1.551000000
H    -1.107000000    -3.350000000     1.716000000
C    -0.147000000    -1.787000000     0.597000000
H     0.360000000    -2.467000000    -0.083000000
C    -0.127000000    -0.449000000     0.350000000
H     0.340000000    -0.030000000    -0.518000000
C    -0.795000000     0.484000000     1.172000000
H    -0.644000000     1.551000000     1.023000000
C    -1.618000000    -0.037000000     2.239000000
H    -1.929000000     0.711000000     2.964000000
C    -1.809000000    -1.450000000     2.355000000
C    -2.705000000    -2.093000000     3.261000000
O    -3.326000000    -1.464000000     4.044000000
O    -3.076000000    -3.212000000     3.054000000
O    -5.210000000    -4.763000000     3.835000000
H    -4.443000000    -4.249000000     3.583000000
H    -4.946000000    -5.207000000     4.642000000
O    -6.169000000    -7.315000000     3.546000000
H    -5.549000000    -7.738000000     2.952000000
H    -6.060000000    -6.379000000     3.379000000
O    -4.600000000    -5.591000000     8.102000000
H    -4.142000000    -5.160000000     7.380000000
H    -5.519000000    -5.356000000     7.976000000
O    -3.966000000    -4.064000000     0.630000000
H    -4.493000000    -4.860000000     0.698000000
H    -3.718000000    -3.863000000     1.533000000
O    -6.652000000    -2.773000000     6.355000000
H    -7.231000000    -3.222000000     5.740000000
H    -6.819000000    -3.199000000     7.196000000
O    -2.860000000    -3.659000000     6.416000000
H    -2.013000000    -4.089000000     6.301000000
H    -2.876000000    -2.979000000     5.743000000
O    -8.639000000    -0.573000000     1.442000000
H    -8.503000000    -0.345000000     2.361000000
H    -7.775000000    -0.842000000     1.131000000
O    -2.899000000    -3.138000000     9.307000000
H    -3.283000000    -3.158000000     8.431000000
H    -2.038000000    -2.739000000     9.183000000
O    -4.482000000    -0.834000000     6.214000000
H    -5.240000000    -1.416000000     6.255000000
H    -3.979000000    -1.148000000     5.463000000
O    -7.450000000    -2.787000000     3.158000000
H    -6.858000000    -2.247000000     3.681000000
H    -7.178000000    -3.687000000     3.341000000
O    -3.481000000    -1.163000000    -0.495000000
H    -3.408000000    -2.018000000    -0.070000000
H    -2.726000000    -0.671000000    -0.173000000
O    -0.629000000    -5.317000000     6.030000000
H    -0.354000000    -5.761000000     6.833000000
H     0.173000000    -5.242000000     5.512000000
O    -3.176000000    -6.618000000     5.285000000
H    -2.514000000    -6.307000000     5.902000000
H    -2.740000000    -6.593000000     4.433000000
O    -5.451000000     1.802000000     6.786000000
H    -6.011000000     1.668000000     6.020000000
H    -4.879000000     1.035000000     6.800000000
O    -5.682000000    -0.523000000     3.022000000
H    -5.494000000     0.400000000     2.852000000
H    -4.892000000    -0.853000000     3.450000000
O    -7.569000000    -4.245000000     0.741000000
H    -7.116000000    -3.679000000     1.366000000
H    -7.645000000    -3.714000000    -0.051000000
O    -7.708000000    -0.401000000     6.732000000
H    -7.507000000    -0.494000000     7.664000000
H    -7.379000000    -1.208000000     6.335000000
O    -6.195000000    -1.514000000     0.239000000
H    -6.192000000    -1.828000000     1.143000000
H    -5.270000000    -1.396000000     0.024000000
O    -1.897000000    -6.083000000     2.736000000
H    -1.623000000    -6.536000000     1.939000000
H    -2.044000000    -5.178000000     2.460000000
