215
-1453.58242
C    -4.288000000     2.488000000    -2.775000000
H    -3.719000000     2.336000000    -3.689000000
C    -3.581000000     2.978000000    -1.712000000
C    -4.287000000     3.067000000    -0.477000000
H    -3.738000000     3.333000000     0.423000000
C    -2.110000000     3.339000000    -1.895000000
O    -1.801000000     3.642000000    -3.245000000
H    -1.657000000     2.433000000    -1.466000000
O    -1.846000000     4.513000000    -1.029000000
C    -0.590000000     4.590000000    -0.387000000
C    -0.603000000     4.389000000     1.010000000
H    -1.625000000     4.338000000     1.377000000
C     0.628000000     4.314000000     1.656000000
O     0.601000000     3.883000000     3.005000000
C     1.854000000     4.478000000     0.965000000
C     3.191000000     4.225000000     1.723000000
H     4.052000000     4.668000000     1.218000000
C     3.516000000     2.783000000     1.777000000
C     4.399000000     2.240000000     0.804000000
H     4.840000000     2.818000000    -0.004000000
H     3.102000000     4.681000000     2.711000000
C     1.848000000     4.632000000    -0.408000000
H     2.750000000     4.542000000    -1.008000000
C     0.639000000     4.705000000    -1.098000000
C     0.753000000     4.966000000    -2.580000000
H     1.645000000     5.553000000    -2.813000000
H    -0.048000000     5.625000000    -2.921000000
C     0.702000000     3.638000000    -3.348000000
C     1.856000000     2.979000000    -3.753000000
H     2.827000000     3.461000000    -3.669000000
C    -0.560000000     3.095000000    -3.661000000
C    -0.587000000     1.871000000    -4.285000000
H    -1.525000000     1.366000000    -4.502000000
C     0.590000000     1.148000000    -4.498000000
O     0.397000000    -0.220000000    -4.862000000
C     0.749000000    -1.159000000    -3.850000000
C    -0.377000000    -2.234000000    -3.729000000
C    -0.013000000    -3.491000000    -3.299000000
H     0.988000000    -3.751000000    -2.964000000
C    -1.705000000    -1.929000000    -3.981000000
H    -1.957000000    -0.992000000    -4.470000000
O     2.007000000    -1.669000000    -4.161000000
H     0.670000000    -0.603000000    -2.904000000
C     1.847000000     1.696000000    -4.310000000
C     3.174000000     0.957000000    -4.523000000
H     3.870000000     1.666000000    -4.976000000
H     2.936000000     0.363000000    -5.408000000
C     3.524000000     0.055000000    -3.322000000
C     4.456000000     0.531000000    -2.457000000
H     5.097000000     1.399000000    -2.597000000
C     2.956000000    -1.241000000    -3.269000000
C     3.296000000    -2.009000000    -2.192000000
H     2.854000000    -3.002000000    -2.208000000
C     4.078000000    -1.544000000    -1.187000000
O     4.186000000    -2.348000000    -0.066000000
C     3.528000000    -2.003000000     1.145000000
C     3.090000000    -3.375000000     1.853000000
C     2.920000000    -4.586000000     1.125000000
H     3.154000000    -4.713000000     0.071000000
C     2.567000000    -3.240000000     3.099000000
H     2.619000000    -2.269000000     3.585000000
O     4.412000000    -1.193000000     1.995000000
H     2.658000000    -1.415000000     0.817000000
C     4.804000000    -0.275000000    -1.348000000
C     5.657000000     0.312000000    -0.221000000
H     6.239000000     1.182000000    -0.533000000
H     6.419000000    -0.412000000     0.074000000
C     4.764000000     0.916000000     0.838000000
C     4.281000000     0.153000000     1.915000000
C     3.461000000     0.622000000     2.864000000
H     3.024000000     0.017000000     3.654000000
C     3.002000000     1.944000000     2.799000000
O     2.072000000     2.322000000     3.751000000
C     0.719000000     2.423000000     3.255000000
H     0.533000000     1.908000000     2.300000000
C    -0.183000000     1.945000000     4.333000000
C    -1.554000000     2.219000000     4.296000000
H    -1.953000000     2.768000000     3.446000000
C     0.254000000     1.149000000     5.444000000
H     1.320000000     1.014000000     5.609000000
C    -0.649000000     0.598000000     6.296000000
O    -0.162000000    -0.324000000     7.183000000
C    -1.991000000     0.884000000     6.183000000
H    -2.719000000     0.492000000     6.888000000
C    -2.476000000     1.700000000     5.193000000
O    -3.814000000     2.041000000     5.196000000
C    -4.543000000     2.702000000     4.248000000
C    -4.969000000     2.040000000     3.051000000
H    -4.772000000     0.975000000     2.961000000
C    -4.707000000     4.065000000     4.401000000
H    -4.505000000     4.548000000     5.354000000
C    -5.390000000     4.807000000     3.475000000
H    -5.593000000     5.868000000     3.593000000
C    -5.892000000     4.179000000     2.306000000
H    -6.521000000     4.758000000     1.635000000
C    -5.600000000     2.870000000     2.063000000
O    -6.072000000     2.305000000     0.914000000
C    -5.548000000     2.542000000    -0.361000000
C    -6.245000000     2.043000000    -1.432000000
H    -7.270000000     1.696000000    -1.336000000
C    -5.601000000     2.067000000    -2.691000000
O    -6.283000000     1.560000000    -3.771000000
C    -5.749000000     0.568000000    -4.528000000
C    -5.152000000    -0.558000000    -3.872000000
H    -5.240000000    -0.607000000    -2.789000000
C    -5.684000000     0.675000000    -5.952000000
H    -6.153000000     1.474000000    -6.521000000
C    -5.150000000    -0.417000000    -6.653000000
H    -5.201000000    -0.539000000    -7.732000000
C    -4.637000000    -1.528000000    -6.011000000
H    -4.286000000    -2.414000000    -6.533000000
C    -4.544000000    -1.577000000    -4.638000000
O    -3.968000000    -2.658000000    -4.040000000
C    -2.647000000    -2.932000000    -3.788000000
C    -2.329000000    -4.233000000    -3.430000000
H    -3.124000000    -4.968000000    -3.521000000
C    -0.989000000    -4.528000000    -3.172000000
O    -0.569000000    -5.824000000    -2.958000000
C     0.692000000    -6.225000000    -2.439000000
C     0.802000000    -6.176000000    -1.018000000
H     0.124000000    -5.627000000    -0.371000000
C     1.637000000    -6.877000000    -3.235000000
H     1.419000000    -6.928000000    -4.299000000
C     2.597000000    -7.653000000    -2.570000000
H     3.345000000    -8.151000000    -3.182000000
C     2.702000000    -7.670000000    -1.214000000
H     3.478000000    -8.240000000    -0.709000000
C     1.855000000    -6.865000000    -0.421000000
O     2.144000000    -6.773000000     0.940000000
C     2.218000000    -5.657000000     1.705000000
C     1.691000000    -5.542000000     2.974000000
H     1.007000000    -6.253000000     3.432000000
C     1.871000000    -4.324000000     3.664000000
O     1.437000000    -4.245000000     4.977000000
C     1.612000000    -3.267000000     5.876000000
C     2.700000000    -3.240000000     6.738000000
H     3.462000000    -4.008000000     6.631000000
C     2.917000000    -2.191000000     7.631000000
H     3.766000000    -2.074000000     8.300000000
C     1.908000000    -1.203000000     7.798000000
H     1.995000000    -0.486000000     8.610000000
C     0.823000000    -1.237000000     6.960000000
C     0.691000000    -2.190000000     5.934000000
H    -0.155000000    -2.186000000     5.252000000
C    -0.605000000    -2.415000000     0.682000000
H    -0.354000000    -3.469000000     0.767000000
C     0.209000000    -1.531000000    -0.064000000
H     1.096000000    -1.898000000    -0.575000000
C    -0.139000000    -0.211000000    -0.086000000
H     0.378000000     0.513000000    -0.738000000
C    -1.150000000     0.268000000     0.697000000
H    -1.344000000     1.336000000     0.634000000
C    -1.994000000    -0.568000000     1.463000000
H    -2.630000000    -0.096000000     2.207000000
C    -1.716000000    -1.948000000     1.410000000
C    -2.272000000    -2.883000000     2.434000000
O    -3.381000000    -2.730000000     2.862000000
O    -1.789000000    -3.969000000     2.656000000
O    -7.737000000    -1.511000000     0.021000000
H    -8.449000000    -1.004000000     0.411000000
H    -7.002000000    -1.394000000     0.623000000
O    -7.558000000    -2.661000000     4.874000000
H    -7.838000000    -1.810000000     5.211000000
H    -6.886000000    -2.953000000     5.490000000
O    -2.279000000    -5.883000000     0.055000000
H    -3.171000000    -5.541000000     0.102000000
H    -1.915000000    -5.725000000     0.926000000
O    -5.318000000    -2.932000000     6.808000000
H    -5.168000000    -2.492000000     7.645000000
H    -4.561000000    -2.693000000     6.274000000
O    -2.561000000    -6.538000000     3.018000000
H    -1.956000000    -6.883000000     3.674000000
H    -2.359000000    -5.603000000     2.972000000
O    -7.391000000    -4.174000000     1.226000000
H    -6.516000000    -3.798000000     1.326000000
H    -7.721000000    -3.798000000     0.409000000
O    -0.748000000    -4.656000000     7.905000000
H    -1.029000000    -4.345000000     7.045000000
H    -1.505000000    -4.511000000     8.472000000
O    -5.878000000    -1.892000000     2.341000000
H    -6.306000000    -1.845000000     3.197000000
H    -5.061000000    -2.362000000     2.508000000
O    -5.124000000    -7.021000000     3.008000000
H    -4.259000000    -7.389000000     2.830000000
H    -5.023000000    -6.564000000     3.843000000
O    -6.045000000    -2.984000000    -1.676000000
H    -5.161000000    -2.687000000    -1.459000000
H    -6.614000000    -2.497000000    -1.080000000
O    -3.599000000    -1.798000000    -0.899000000
H    -2.683000000    -2.001000000    -1.088000000
H    -3.660000000    -1.835000000     0.056000000
O    -3.319000000    -1.916000000     5.342000000
H    -3.424000000    -2.144000000     4.418000000
H    -2.788000000    -1.119000000     5.333000000
O    -3.785000000    -6.312000000     6.046000000
H    -3.137000000    -5.642000000     5.824000000
H    -3.282000000    -7.125000000     6.089000000
O    -4.661000000    -4.903000000     1.367000000
H    -4.740000000    -5.581000000     2.037000000
H    -4.211000000    -4.182000000     1.807000000
O    -5.809000000    -5.844000000    -2.766000000
H    -5.765000000    -5.110000000    -2.153000000
H    -5.364000000    -6.561000000    -2.315000000
O    -2.641000000    -7.663000000    -2.166000000
H    -2.325000000    -6.975000000    -1.580000000
H    -2.490000000    -7.315000000    -3.045000000
O    -2.991000000    -3.631000000     8.920000000
H    -3.800000000    -3.703000000     9.427000000
H    -2.964000000    -2.716000000     8.640000000
O    -2.003000000    -4.431000000     5.458000000
H    -2.719000000    -3.845000000     5.701000000
H    -1.822000000    -4.221000000     4.542000000
O    -0.984000000    -7.132000000     5.525000000
H    -1.072000000    -6.183000000     5.619000000
H    -0.176000000    -7.345000000     5.992000000
