215
-1444.31076
C    -4.122000000     1.780000000    -2.581000000
H    -3.640000000     1.419000000    -3.485000000
C    -3.421000000     2.671000000    -1.787000000
C    -4.124000000     3.207000000    -0.694000000
H    -3.679000000     4.031000000    -0.142000000
C    -2.042000000     3.139000000    -2.137000000
O    -1.761000000     3.104000000    -3.521000000
H    -1.386000000     2.377000000    -1.691000000
O    -1.826000000     4.461000000    -1.591000000
C    -0.573000000     4.628000000    -1.063000000
C    -0.590000000     4.631000000     0.350000000
H    -1.526000000     4.543000000     0.896000000
C     0.546000000     4.676000000     1.128000000
O     0.429000000     4.418000000     2.453000000
C     1.793000000     4.746000000     0.407000000
C     3.117000000     4.549000000     1.191000000
H     3.886000000     5.131000000     0.679000000
C     3.566000000     3.109000000     1.507000000
C     4.425000000     2.382000000     0.592000000
H     4.766000000     2.891000000    -0.306000000
H     3.089000000     5.071000000     2.149000000
C     1.854000000     4.779000000    -1.016000000
H     2.793000000     4.795000000    -1.564000000
C     0.638000000     4.582000000    -1.746000000
C     0.723000000     4.450000000    -3.275000000
H     1.602000000     5.004000000    -3.612000000
H    -0.147000000     4.923000000    -3.737000000
C     0.703000000     3.037000000    -3.717000000
C     1.860000000     2.239000000    -3.927000000
H     2.870000000     2.631000000    -3.835000000
C    -0.564000000     2.491000000    -3.914000000
C    -0.737000000     1.144000000    -4.310000000
H    -1.723000000     0.709000000    -4.452000000
C     0.387000000     0.332000000    -4.485000000
O     0.236000000    -0.982000000    -4.618000000
C     0.523000000    -1.925000000    -3.600000000
C    -0.496000000    -3.047000000    -3.360000000
C    -0.127000000    -4.253000000    -2.800000000
H     0.885000000    -4.398000000    -2.432000000
C    -1.812000000    -2.850000000    -3.767000000
H    -2.032000000    -1.891000000    -4.229000000
O     1.836000000    -2.488000000    -3.763000000
H     0.474000000    -1.343000000    -2.668000000
C     1.654000000     0.877000000    -4.298000000
C     2.914000000     0.060000000    -4.577000000
H     3.707000000     0.719000000    -4.937000000
H     2.711000000    -0.657000000    -5.376000000
C     3.300000000    -0.655000000    -3.269000000
C     4.138000000     0.088000000    -2.434000000
H     4.478000000     1.085000000    -2.705000000
C     2.809000000    -1.942000000    -2.970000000
C     3.262000000    -2.544000000    -1.822000000
H     2.812000000    -3.466000000    -1.463000000
C     4.160000000    -1.875000000    -0.961000000
O     4.375000000    -2.411000000     0.327000000
C     3.668000000    -1.940000000     1.444000000
C     3.121000000    -3.113000000     2.144000000
C     3.099000000    -4.379000000     1.572000000
H     3.652000000    -4.582000000     0.658000000
C     2.392000000    -2.978000000     3.354000000
H     2.371000000    -1.995000000     3.817000000
O     4.339000000    -0.963000000     2.198000000
H     2.791000000    -1.371000000     1.104000000
C     4.529000000    -0.579000000    -1.292000000
C     5.372000000     0.221000000    -0.248000000
H     5.825000000     0.956000000    -0.916000000
H     6.110000000    -0.457000000     0.185000000
C     4.592000000     1.006000000     0.788000000
C     4.120000000     0.393000000     1.962000000
C     3.403000000     1.097000000     2.878000000
H     3.006000000     0.529000000     3.716000000
C     3.061000000     2.437000000     2.639000000
O     2.174000000     3.093000000     3.457000000
C     0.799000000     3.108000000     2.979000000
H     0.725000000     2.376000000     2.162000000
C    -0.224000000     2.651000000     4.024000000
C    -1.540000000     3.131000000     4.030000000
H    -1.747000000     3.862000000     3.253000000
C     0.052000000     1.587000000     4.916000000
H     0.971000000     1.008000000     4.868000000
C    -0.862000000     1.187000000     5.873000000
O    -0.598000000     0.202000000     6.838000000
C    -2.117000000     1.764000000     5.887000000
H    -2.874000000     1.387000000     6.570000000
C    -2.444000000     2.733000000     4.958000000
O    -3.787000000     2.988000000     4.852000000
C    -4.237000000     3.763000000     3.875000000
C    -5.170000000     3.218000000     2.975000000
H    -5.477000000     2.181000000     3.086000000
C    -3.871000000     5.138000000     3.704000000
H    -3.291000000     5.641000000     4.473000000
C    -4.365000000     5.894000000     2.633000000
H    -4.176000000     6.953000000     2.479000000
C    -5.182000000     5.220000000     1.639000000
H    -5.580000000     5.785000000     0.799000000
C    -5.492000000     3.848000000     1.799000000
O    -6.077000000     3.219000000     0.791000000
C    -5.390000000     2.798000000    -0.352000000
C    -6.097000000     2.050000000    -1.315000000
H    -7.177000000     1.970000000    -1.219000000
C    -5.417000000     1.516000000    -2.401000000
O    -6.099000000     0.721000000    -3.282000000
C    -5.419000000    -0.200000000    -4.048000000
C    -5.088000000    -1.423000000    -3.609000000
H    -5.296000000    -1.639000000    -2.564000000
C    -5.278000000     0.064000000    -5.399000000
H    -5.508000000     1.096000000    -5.651000000
C    -4.807000000    -0.932000000    -6.294000000
H    -4.779000000    -0.601000000    -7.329000000
C    -4.422000000    -2.209000000    -5.857000000
H    -4.123000000    -3.008000000    -6.531000000
C    -4.539000000    -2.440000000    -4.470000000
O    -4.090000000    -3.641000000    -3.979000000
C    -2.777000000    -3.836000000    -3.680000000
C    -2.442000000    -5.035000000    -3.134000000
H    -3.133000000    -5.859000000    -2.977000000
C    -1.114000000    -5.287000000    -2.746000000
O    -0.795000000    -6.518000000    -2.205000000
C     0.477000000    -6.845000000    -1.692000000
C     0.793000000    -6.679000000    -0.344000000
H    -0.042000000    -6.527000000     0.335000000
C     1.513000000    -7.076000000    -2.577000000
H     1.245000000    -7.208000000    -3.622000000
C     2.806000000    -7.180000000    -2.116000000
H     3.542000000    -7.379000000    -2.890000000
C     3.113000000    -6.956000000    -0.816000000
H     4.110000000    -6.924000000    -0.383000000
C     2.078000000    -6.767000000     0.102000000
O     2.385000000    -6.658000000     1.446000000
C     2.471000000    -5.469000000     2.142000000
C     1.749000000    -5.281000000     3.356000000
H     1.272000000    -6.062000000     3.942000000
C     1.740000000    -4.023000000     3.997000000
O     1.139000000    -3.894000000     5.253000000
C     1.321000000    -2.784000000     6.008000000
C     2.290000000    -2.666000000     7.043000000
H     3.049000000    -3.434000000     7.166000000
C     2.332000000    -1.597000000     7.918000000
H     3.064000000    -1.632000000     8.721000000
C     1.380000000    -0.644000000     7.784000000
H     1.557000000     0.245000000     8.385000000
C     0.424000000    -0.720000000     6.780000000
C     0.344000000    -1.826000000     5.950000000
H    -0.416000000    -1.955000000     5.184000000
C    -0.988000000    -3.274000000     1.115000000
H    -0.707000000    -4.231000000     0.683000000
C    -0.398000000    -2.099000000     0.588000000
H     0.094000000    -2.180000000    -0.378000000
C    -0.538000000    -0.935000000     1.310000000
H    -0.070000000     0.000000000     0.983000000
C    -1.270000000    -0.811000000     2.457000000
H    -1.358000000     0.121000000     3.009000000
C    -1.840000000    -1.945000000     3.002000000
H    -2.426000000    -1.770000000     3.900000000
C    -1.708000000    -3.204000000     2.366000000
C    -2.365000000    -4.416000000     2.951000000
O    -3.054000000    -4.306000000     3.977000000
O    -2.218000000    -5.476000000     2.406000000
O    -5.626000000    -0.511000000     1.629000000
H    -6.418000000    -0.276000000     2.111000000
H    -5.264000000    -1.255000000     2.111000000
O    -7.859000000    -3.122000000     5.577000000
H    -8.028000000    -2.842000000     6.476000000
H    -6.936000000    -3.374000000     5.574000000
O    -2.643000000    -6.765000000     0.117000000
H    -3.594000000    -6.862000000     0.179000000
H    -2.424000000    -6.121000000     0.790000000
O    -1.137000000    -7.523000000     3.890000000
H    -1.977000000    -7.644000000     4.334000000
H    -1.201000000    -6.656000000     3.489000000
O    -6.229000000    -8.610000000     1.348000000
H    -5.982000000    -8.739000000     0.432000000
H    -5.500000000    -8.118000000     1.725000000
O    -6.116000000    -5.226000000     1.905000000
H    -5.696000000    -5.893000000     2.449000000
H    -5.893000000    -5.475000000     1.008000000
O    -1.740000000    -6.762000000     8.092000000
H    -1.677000000    -5.895000000     7.691000000
H    -1.498000000    -6.620000000     9.008000000
O    -5.496000000    -2.922000000     3.437000000
H    -5.998000000    -3.633000000     3.040000000
H    -4.596000000    -3.248000000     3.459000000
O    -5.108000000    -0.874000000     5.644000000
H    -5.973000000    -0.471000000     5.725000000
H    -5.199000000    -1.492000000     4.919000000
O    -5.178000000    -3.658000000    -0.489000000
H    -4.299000000    -3.337000000    -0.290000000
H    -5.608000000    -2.924000000    -0.927000000
O    -3.525000000    -1.386000000     0.111000000
H    -4.163000000    -0.744000000     0.421000000
H    -2.775000000    -1.281000000     0.695000000
O    -5.131000000    -3.700000000     6.482000000
H    -4.652000000    -3.831000000     5.664000000
H    -4.681000000    -2.969000000     6.908000000
O    -3.168000000    -7.933000000     5.610000000
H    -2.878000000    -7.546000000     6.436000000
H    -4.121000000    -7.845000000     5.626000000
O     0.265000000    -7.049000000     6.289000000
H    -0.193000000    -7.328000000     5.496000000
H    -0.431000000    -6.904000000     6.929000000
O    -4.508000000    -7.443000000     2.810000000
H    -4.599000000    -7.829000000     3.681000000
H    -3.700000000    -6.932000000     2.858000000
O    -5.842000000    -6.315000000    -0.671000000
H    -5.648000000    -5.379000000    -0.731000000
H    -6.101000000    -6.563000000    -1.559000000
O    -1.231000000    -3.030000000     8.595000000
H    -1.489000000    -3.663000000     7.925000000
H    -1.782000000    -2.265000000     8.426000000
O    -1.610000000    -4.739000000     6.253000000
H    -2.271000000    -4.773000000     5.561000000
H    -0.803000000    -4.494000000     5.801000000
O     0.625000000    -9.493000000     4.300000000
H     0.188000000    -9.856000000     5.071000000
H     0.051000000    -8.783000000     4.012000000
