215
-1447.44482
C    -3.824000000     1.785000000    -2.735000000
H    -3.119000000     1.404000000    -3.470000000
C    -3.343000000     2.757000000    -1.856000000
C    -4.217000000     3.233000000    -0.953000000
H    -3.873000000     3.863000000    -0.137000000
C    -1.979000000     3.367000000    -2.014000000
O    -1.399000000     3.377000000    -3.349000000
H    -1.388000000     2.657000000    -1.416000000
O    -1.687000000     4.650000000    -1.388000000
C    -0.578000000     4.785000000    -0.558000000
C    -0.780000000     4.578000000     0.805000000
H    -1.816000000     4.435000000     1.101000000
C     0.297000000     4.440000000     1.635000000
O    -0.014000000     4.048000000     2.869000000
C     1.636000000     4.556000000     1.146000000
C     2.835000000     4.384000000     2.102000000
H     3.632000000     5.101000000     1.895000000
C     3.200000000     2.935000000     2.246000000
C     4.216000000     2.392000000     1.464000000
H     4.880000000     2.983000000     0.839000000
H     2.460000000     4.685000000     3.082000000
C     1.824000000     4.588000000    -0.223000000
H     2.832000000     4.719000000    -0.610000000
C     0.717000000     4.771000000    -1.078000000
C     0.952000000     4.871000000    -2.566000000
H     1.815000000     5.446000000    -2.908000000
H     0.109000000     5.432000000    -2.975000000
C     1.026000000     3.451000000    -3.138000000
C     2.213000000     2.809000000    -3.336000000
H     3.121000000     3.291000000    -2.981000000
C    -0.131000000     2.797000000    -3.503000000
C    -0.108000000     1.591000000    -4.212000000
H    -0.987000000     1.036000000    -4.529000000
C     1.091000000     0.910000000    -4.357000000
O     1.055000000    -0.355000000    -4.795000000
C     1.281000000    -1.467000000    -3.870000000
C     0.280000000    -2.648000000    -4.014000000
C     0.394000000    -3.724000000    -3.110000000
H     1.281000000    -3.817000000    -2.489000000
C    -0.891000000    -2.518000000    -4.764000000
H    -1.035000000    -1.648000000    -5.398000000
O     2.673000000    -1.827000000    -3.764000000
H     1.009000000    -1.055000000    -2.887000000
C     2.245000000     1.583000000    -3.948000000
C     3.575000000     0.917000000    -4.030000000
H     4.448000000     1.564000000    -4.140000000
H     3.609000000     0.223000000    -4.872000000
C     3.825000000     0.045000000    -2.805000000
C     4.429000000     0.545000000    -1.699000000
H     4.660000000     1.606000000    -1.751000000
C     3.522000000    -1.324000000    -2.795000000
C     3.811000000    -2.133000000    -1.735000000
H     3.640000000    -3.206000000    -1.774000000
C     4.437000000    -1.549000000    -0.597000000
O     4.556000000    -2.293000000     0.603000000
C     3.580000000    -2.070000000     1.618000000
C     3.118000000    -3.375000000     2.164000000
C     3.361000000    -4.595000000     1.544000000
H     4.063000000    -4.653000000     0.716000000
C     2.257000000    -3.381000000     3.255000000
H     1.977000000    -2.421000000     3.681000000
O     4.181000000    -1.192000000     2.571000000
H     2.685000000    -1.524000000     1.284000000
C     4.734000000    -0.212000000    -0.601000000
C     5.488000000     0.535000000     0.541000000
H     6.174000000     1.284000000     0.141000000
H     6.153000000    -0.210000000     0.984000000
C     4.597000000     1.030000000     1.604000000
C     3.960000000     0.195000000     2.476000000
C     2.905000000     0.735000000     3.201000000
H     2.349000000     0.214000000     3.976000000
C     2.501000000     2.051000000     3.079000000
O     1.435000000     2.451000000     3.943000000
C     0.177000000     2.724000000     3.257000000
H     0.134000000     2.082000000     2.364000000
C    -0.972000000     2.152000000     4.141000000
C    -2.275000000     2.638000000     4.021000000
H    -2.423000000     3.514000000     3.394000000
C    -0.738000000     0.981000000     4.881000000
H     0.285000000     0.630000000     4.981000000
C    -1.829000000     0.308000000     5.504000000
O    -1.685000000    -0.865000000     6.169000000
C    -3.089000000     0.860000000     5.441000000
H    -3.840000000     0.285000000     5.976000000
C    -3.341000000     2.077000000     4.716000000
O    -4.606000000     2.632000000     4.681000000
C    -5.124000000     3.353000000     3.554000000
C    -5.500000000     2.787000000     2.314000000
H    -5.462000000     1.705000000     2.209000000
C    -5.182000000     4.717000000     3.861000000
H    -4.742000000     5.115000000     4.772000000
C    -5.610000000     5.552000000     2.818000000
H    -5.659000000     6.634000000     2.912000000
C    -5.985000000     5.063000000     1.568000000
H    -6.361000000     5.711000000     0.780000000
C    -5.900000000     3.703000000     1.309000000
O    -6.383000000     3.327000000     0.101000000
C    -5.568000000     2.791000000    -0.864000000
C    -6.019000000     1.884000000    -1.828000000
H    -7.031000000     1.489000000    -1.791000000
C    -5.152000000     1.359000000    -2.757000000
O    -5.603000000     0.263000000    -3.473000000
C    -4.880000000    -0.277000000    -4.560000000
C    -4.136000000    -1.411000000    -4.455000000
H    -3.918000000    -1.763000000    -3.450000000
C    -5.058000000     0.297000000    -5.810000000
H    -5.575000000     1.250000000    -5.883000000
C    -4.489000000    -0.283000000    -6.931000000
H    -4.569000000     0.213000000    -7.895000000
C    -3.849000000    -1.542000000    -6.795000000
H    -3.509000000    -2.013000000    -7.714000000
C    -3.689000000    -2.082000000    -5.539000000
O    -3.054000000    -3.311000000    -5.317000000
C    -1.921000000    -3.470000000    -4.620000000
C    -1.807000000    -4.507000000    -3.746000000
H    -2.655000000    -5.161000000    -3.560000000
C    -0.589000000    -4.675000000    -3.062000000
O    -0.434000000    -5.675000000    -2.112000000
C     0.801000000    -6.145000000    -1.733000000
C     1.072000000    -6.320000000    -0.390000000
H     0.442000000    -5.947000000     0.413000000
C     1.667000000    -6.678000000    -2.651000000
H     1.363000000    -6.662000000    -3.695000000
C     2.840000000    -7.237000000    -2.281000000
H     3.523000000    -7.527000000    -3.076000000
C     3.241000000    -7.336000000    -0.971000000
H     4.222000000    -7.686000000    -0.658000000
C     2.326000000    -6.833000000    -0.004000000
O     2.676000000    -6.929000000     1.266000000
C     2.676000000    -5.764000000     1.996000000
C     1.887000000    -5.778000000     3.193000000
H     1.479000000    -6.745000000     3.475000000
C     1.780000000    -4.539000000     3.848000000
O     1.086000000    -4.544000000     5.007000000
C     0.892000000    -3.467000000     5.747000000
C     1.770000000    -3.110000000     6.716000000
H     2.678000000    -3.694000000     6.848000000
C     1.583000000    -1.938000000     7.470000000
H     2.350000000    -1.635000000     8.178000000
C     0.435000000    -1.095000000     7.166000000
H     0.377000000    -0.267000000     7.868000000
C    -0.475000000    -1.522000000     6.226000000
C    -0.217000000    -2.644000000     5.463000000
H    -0.841000000    -2.936000000     4.622000000
C    -0.382000000    -2.342000000     0.690000000
H    -0.373000000    -3.418000000     0.850000000
C     0.517000000    -1.815000000    -0.219000000
H     1.370000000    -2.336000000    -0.646000000
C     0.588000000    -0.427000000    -0.449000000
H     1.264000000     0.007000000    -1.139000000
C    -0.166000000     0.368000000     0.296000000
H     0.040000000     1.431000000     0.208000000
C    -1.187000000    -0.156000000     1.122000000
H    -1.911000000     0.475000000     1.631000000
C    -1.349000000    -1.526000000     1.289000000
C    -2.496000000    -2.054000000     2.050000000
O    -3.491000000    -1.376000000     2.363000000
O    -2.479000000    -3.236000000     2.249000000
O    -7.790000000    -2.966000000     3.105000000
H    -7.075000000    -2.337000000     3.200000000
H    -7.729000000    -3.262000000     2.197000000
O    -6.476000000     0.572000000     5.552000000
H    -6.189000000     1.019000000     6.348000000
H    -7.212000000     0.029000000     5.834000000
O    -8.582000000    -0.866000000    -1.164000000
H    -7.910000000    -0.789000000    -0.488000000
H    -9.217000000    -1.483000000    -0.801000000
O    -2.312000000    -5.321000000     0.631000000
H    -2.100000000    -4.621000000     1.248000000
H    -3.063000000    -4.988000000     0.139000000
O    -5.142000000    -7.497000000    -0.488000000
H    -4.267000000    -7.441000000    -0.872000000
H    -5.183000000    -6.761000000     0.123000000
O    -7.758000000    -5.907000000     3.113000000
H    -7.590000000    -5.934000000     2.171000000
H    -7.337000000    -5.100000000     3.408000000
O    -7.333000000    -0.355000000     1.179000000
H    -7.069000000    -0.778000000     1.996000000
H    -7.538000000     0.546000000     1.432000000
O    -2.268000000    -4.823000000     6.801000000
H    -1.378000000    -4.762000000     6.454000000
H    -2.152000000    -4.870000000     7.750000000
O    -5.819000000    -1.284000000     3.421000000
H    -5.774000000    -0.610000000     4.099000000
H    -4.999000000    -1.190000000     2.936000000
O    -7.052000000    -3.610000000     0.415000000
H    -6.455000000    -3.032000000    -0.059000000
H    -7.921000000    -3.373000000     0.092000000
O    -4.987000000    -1.821000000    -0.127000000
H    -5.608000000    -1.099000000    -0.222000000
H    -4.444000000    -1.573000000     0.621000000
O    -4.648000000    -4.075000000     3.570000000
H    -3.863000000    -3.797000000     3.098000000
H    -5.041000000    -3.260000000     3.882000000
O    -5.121000000    -4.747000000     6.103000000
H    -5.060000000    -4.568000000     5.165000000
H    -4.211000000    -4.793000000     6.398000000
O    -5.649000000    -5.583000000     1.345000000
H    -6.161000000    -4.838000000     1.031000000
H    -5.122000000    -5.227000000     2.060000000
O    -3.359000000    -8.339000000     1.531000000
H    -2.636000000    -8.316000000     0.905000000
H    -4.137000000    -8.148000000     1.007000000
O    -2.715000000    -7.261000000    -1.627000000
H    -2.162000000    -6.825000000    -0.979000000
H    -2.099000000    -7.609000000    -2.272000000
O    -3.827000000    -2.197000000     8.383000000
H    -3.591000000    -2.131000000     7.458000000
H    -3.269000000    -1.551000000     8.819000000
O    -1.287000000    -5.624000000     3.407000000
H    -1.560000000    -4.706000000     3.402000000
H    -1.477000000    -5.935000000     2.522000000
O    -2.878000000    -7.304000000     5.091000000
H    -2.386000000    -7.074000000     4.303000000
H    -2.890000000    -6.499000000     5.609000000
