215
-1461.37163
C    -4.192000000     2.645000000    -0.903000000
H    -3.710000000     2.646000000    -1.877000000
C    -3.482000000     3.265000000     0.104000000
C    -3.745000000     3.057000000     1.471000000
H    -3.140000000     3.423000000     2.297000000
C    -2.051000000     3.790000000    -0.196000000
O    -1.906000000     4.595000000    -1.454000000
H    -1.450000000     2.869000000    -0.164000000
O    -1.630000000     4.673000000     0.880000000
C    -0.304000000     4.471000000     1.319000000
C    -0.184000000     3.738000000     2.529000000
H    -1.040000000     3.623000000     3.188000000
C     1.102000000     3.358000000     3.017000000
O     1.248000000     2.473000000     4.044000000
C     2.182000000     3.689000000     2.275000000
C     3.566000000     3.159000000     2.702000000
H     4.262000000     3.790000000     2.147000000
C     3.886000000     1.738000000     2.194000000
C     4.665000000     1.558000000     1.057000000
H     5.014000000     2.443000000     0.531000000
H     3.803000000     3.428000000     3.734000000
C     2.090000000     4.512000000     1.073000000
H     2.998000000     4.753000000     0.525000000
C     0.836000000     4.859000000     0.585000000
C     0.700000000     5.638000000    -0.742000000
H     1.591000000     6.227000000    -0.966000000
H    -0.194000000     6.241000000    -0.567000000
C     0.481000000     4.794000000    -1.967000000
C     1.528000000     4.184000000    -2.700000000
H     2.548000000     4.438000000    -2.425000000
C    -0.838000000     4.331000000    -2.267000000
C    -1.005000000     3.369000000    -3.242000000
H    -1.956000000     2.848000000    -3.324000000
C     0.013000000     2.781000000    -3.970000000
O    -0.255000000     1.725000000    -4.839000000
C    -0.045000000     0.406000000    -4.260000000
C    -1.050000000    -0.554000000    -4.776000000
C    -0.727000000    -1.906000000    -4.683000000
H     0.259000000    -2.208000000    -4.342000000
C    -2.287000000    -0.083000000    -5.219000000
H    -2.496000000     0.972000000    -5.064000000
O     1.308000000    -0.012000000    -4.635000000
H    -0.038000000     0.553000000    -3.170000000
C     1.273000000     3.203000000    -3.649000000
C     2.524000000     2.627000000    -4.272000000
H     3.331000000     3.362000000    -4.311000000
H     2.330000000     2.398000000    -5.322000000
C     2.978000000     1.333000000    -3.563000000
C     3.968000000     1.411000000    -2.556000000
H     4.542000000     2.334000000    -2.582000000
C     2.300000000     0.138000000    -3.712000000
C     2.574000000    -1.055000000    -3.012000000
H     1.904000000    -1.905000000    -3.123000000
C     3.591000000    -1.041000000    -2.092000000
O     3.957000000    -2.252000000    -1.498000000
C     3.556000000    -2.462000000    -0.168000000
C     3.305000000    -3.958000000     0.108000000
C     2.640000000    -4.655000000    -0.860000000
H     2.395000000    -4.141000000    -1.786000000
C     3.406000000    -4.510000000     1.446000000
H     3.795000000    -3.920000000     2.272000000
O     4.587000000    -2.031000000     0.736000000
H     2.634000000    -1.908000000     0.064000000
C     4.340000000     0.190000000    -1.885000000
C     5.527000000     0.218000000    -0.937000000
H     6.277000000     0.986000000    -1.139000000
H     6.086000000    -0.720000000    -0.943000000
C     4.955000000     0.317000000     0.487000000
C     4.519000000    -0.734000000     1.223000000
C     3.884000000    -0.664000000     2.443000000
H     3.568000000    -1.504000000     3.056000000
C     3.533000000     0.589000000     2.932000000
O     2.715000000     0.680000000     4.036000000
C     1.343000000     1.093000000     3.794000000
H     1.151000000     0.963000000     2.718000000
C     0.395000000     0.271000000     4.592000000
C    -0.661000000     0.860000000     5.318000000
H    -0.733000000     1.922000000     5.539000000
C     0.451000000    -1.105000000     4.380000000
H     1.197000000    -1.610000000     3.771000000
C    -0.487000000    -1.987000000     4.924000000
O    -0.436000000    -3.339000000     4.624000000
C    -1.553000000    -1.433000000     5.640000000
H    -2.399000000    -2.060000000     5.908000000
C    -1.600000000    -0.006000000     5.848000000
O    -2.687000000     0.504000000     6.559000000
C    -3.448000000     1.549000000     6.059000000
C    -3.921000000     1.451000000     4.719000000
H    -3.560000000     0.620000000     4.119000000
C    -3.787000000     2.677000000     6.813000000
H    -3.410000000     2.832000000     7.821000000
C    -4.425000000     3.768000000     6.193000000
H    -4.526000000     4.695000000     6.752000000
C    -4.859000000     3.664000000     4.898000000
H    -5.471000000     4.457000000     4.476000000
C    -4.685000000     2.490000000     4.199000000
O    -5.346000000     2.183000000     3.012000000
C    -4.955000000     2.385000000     1.711000000
C    -5.786000000     1.847000000     0.698000000
H    -6.713000000     1.355000000     0.980000000
C    -5.360000000     1.913000000    -0.660000000
O    -5.932000000     1.099000000    -1.608000000
C    -5.843000000     1.237000000    -2.966000000
C    -5.303000000     0.205000000    -3.660000000
H    -4.891000000    -0.669000000    -3.163000000
C    -6.063000000     2.521000000    -3.575000000
H    -6.624000000     3.265000000    -3.015000000
C    -5.869000000     2.621000000    -4.974000000
H    -6.152000000     3.541000000    -5.478000000
C    -5.484000000     1.524000000    -5.766000000
H    -5.276000000     1.665000000    -6.824000000
C    -5.126000000     0.331000000    -5.092000000
O    -4.507000000    -0.712000000    -5.770000000
C    -3.232000000    -1.078000000    -5.499000000
C    -2.994000000    -2.432000000    -5.360000000
H    -3.751000000    -3.212000000    -5.363000000
C    -1.723000000    -2.847000000    -4.955000000
O    -1.533000000    -4.200000000    -4.559000000
C    -0.305000000    -4.825000000    -4.311000000
C    -0.052000000    -5.408000000    -3.114000000
H    -0.786000000    -5.378000000    -2.313000000
C     0.644000000    -4.947000000    -5.352000000
H     0.459000000    -4.453000000    -6.302000000
C     1.877000000    -5.569000000    -5.162000000
H     2.644000000    -5.562000000    -5.933000000
C     2.147000000    -6.122000000    -3.867000000
H     3.110000000    -6.623000000    -3.816000000
C     1.171000000    -6.045000000    -2.867000000
O     1.420000000    -6.610000000    -1.626000000
C     2.129000000    -5.897000000    -0.687000000
C     2.250000000    -6.502000000     0.590000000
H     1.720000000    -7.427000000     0.805000000
C     2.860000000    -5.802000000     1.636000000
O     2.873000000    -6.450000000     2.898000000
C     2.298000000    -5.759000000     3.956000000
C     2.919000000    -5.718000000     5.180000000
H     3.844000000    -6.286000000     5.236000000
C     2.392000000    -4.987000000     6.262000000
H     3.016000000    -4.959000000     7.152000000
C     1.326000000    -4.114000000     6.079000000
H     1.014000000    -3.526000000     6.937000000
C     0.621000000    -4.169000000     4.864000000
C     1.103000000    -5.035000000     3.770000000
H     0.509000000    -5.217000000     2.878000000
C    -0.647000000    -2.330000000     0.325000000
H    -0.245000000    -3.220000000    -0.152000000
C     0.019000000    -1.129000000     0.101000000
H     0.731000000    -0.944000000    -0.699000000
C    -0.402000000     0.006000000     0.754000000
H    -0.044000000     1.009000000     0.539000000
C    -1.465000000    -0.015000000     1.683000000
H    -1.867000000     0.916000000     2.075000000
C    -2.189000000    -1.192000000     1.864000000
H    -3.097000000    -1.176000000     2.461000000
C    -1.723000000    -2.373000000     1.222000000
C    -2.537000000    -3.616000000     1.269000000
O    -3.473000000    -3.749000000     2.011000000
O    -2.390000000    -4.538000000     0.505000000
O    -3.691000000    -0.952000000    -0.978000000
H    -2.932000000    -1.059000000    -0.405000000
H    -3.520000000    -0.138000000    -1.452000000
O    -1.461000000    -9.307000000     0.098000000
H    -2.073000000    -9.944000000     0.467000000
H    -1.490000000    -8.568000000     0.705000000
O    -5.618000000    -6.534000000    -2.932000000
H    -5.225000000    -6.267000000    -2.101000000
H    -4.911000000    -6.449000000    -3.571000000
O    -4.240000000    -6.214000000    -0.545000000
H    -3.538000000    -5.725000000    -0.115000000
H    -3.796000000    -6.950000000    -0.966000000
O    -6.653000000    -1.823000000    -0.231000000
H    -6.362000000    -2.647000000     0.161000000
H    -5.920000000    -1.549000000    -0.783000000
O    -7.860000000    -7.059000000     3.327000000
H    -7.682000000    -6.135000000     3.149000000
H    -8.423000000    -7.337000000     2.604000000
O    -5.701000000    -4.221000000     0.794000000
H    -5.558000000    -4.816000000     0.058000000
H    -4.831000000    -4.092000000     1.171000000
O    -4.979000000    -2.426000000     3.626000000
H    -4.509000000    -2.931000000     2.962000000
H    -5.463000000    -3.083000000     4.127000000
O    -1.914000000    -5.811000000     3.786000000
H    -1.709000000    -4.957000000     4.165000000
H    -2.856000000    -5.780000000     3.619000000
O    -5.822000000    -4.959000000     4.829000000
H    -6.595000000    -4.766000000     5.360000000
H    -5.136000000    -5.156000000     5.468000000
O    -6.220000000    -1.738000000     6.343000000
H    -6.976000000    -1.415000000     5.853000000
H    -5.471000000    -1.285000000     5.953000000
O    -4.434000000    -5.948000000     2.788000000
H    -5.046000000    -5.521000000     3.388000000
H    -3.947000000    -5.226000000     2.390000000
O    -6.065000000    -3.019000000    -2.856000000
H    -5.130000000    -3.225000000    -2.837000000
H    -6.174000000    -2.474000000    -3.635000000
O    -8.134000000    -4.555000000     2.023000000
H    -8.698000000    -4.475000000     1.254000000
H    -7.269000000    -4.283000000     1.716000000
O     0.274000000    -7.970000000     4.778000000
H    -0.604000000    -7.589000000     4.799000000
H     0.746000000    -7.449000000     4.129000000
O    -4.462000000    -8.749000000     2.483000000
H    -5.274000000    -8.653000000     1.986000000
H    -4.340000000    -7.901000000     2.909000000
O    -6.797000000    -0.795000000     2.654000000
H    -6.344000000    -0.737000000     1.812000000
H    -6.258000000    -1.390000000     3.175000000
O    -3.658000000    -3.432000000    -2.415000000
H    -2.748000000    -3.576000000    -2.676000000
H    -3.615000000    -2.715000000    -1.782000000
O    -1.781000000    -7.096000000     1.326000000
H    -2.267000000    -7.083000000     2.150000000
H    -1.934000000    -6.232000000     0.944000000
