215
-1460.12417
C    -4.308000000     3.216000000    -0.892000000
H    -4.219000000     3.329000000    -1.969000000
C    -3.325000000     3.481000000     0.062000000
C    -3.594000000     3.280000000     1.403000000
H    -2.757000000     3.383000000     2.088000000
C    -1.874000000     3.850000000    -0.391000000
O    -1.928000000     4.319000000    -1.774000000
H    -1.250000000     2.963000000    -0.205000000
O    -1.494000000     4.919000000     0.430000000
C    -0.161000000     4.874000000     0.834000000
C     0.143000000     4.388000000     2.105000000
H    -0.681000000     4.203000000     2.789000000
C     1.419000000     3.851000000     2.364000000
O     1.597000000     3.158000000     3.531000000
C     2.509000000     3.992000000     1.523000000
C     3.886000000     3.358000000     1.858000000
H     4.603000000     4.010000000     1.353000000
C     4.064000000     1.908000000     1.458000000
C     4.697000000     1.543000000     0.248000000
H     5.003000000     2.362000000    -0.398000000
H     4.261000000     3.433000000     2.881000000
C     2.154000000     4.533000000     0.251000000
H     2.987000000     4.578000000    -0.446000000
C     0.898000000     5.022000000    -0.083000000
C     0.666000000     5.399000000    -1.495000000
H     1.628000000     5.733000000    -1.887000000
H    -0.091000000     6.178000000    -1.608000000
C     0.359000000     4.169000000    -2.408000000
C     1.396000000     3.457000000    -3.036000000
H     2.433000000     3.767000000    -2.939000000
C    -0.967000000     3.702000000    -2.586000000
C    -1.315000000     2.663000000    -3.467000000
H    -2.297000000     2.198000000    -3.431000000
C    -0.239000000     1.979000000    -4.066000000
O    -0.600000000     0.809000000    -4.686000000
C    -0.151000000    -0.402000000    -4.083000000
C    -1.356000000    -1.400000000    -4.098000000
C    -1.132000000    -2.773000000    -4.090000000
H    -0.128000000    -3.173000000    -4.214000000
C    -2.702000000    -0.933000000    -4.033000000
H    -2.921000000     0.128000000    -3.942000000
O     0.935000000    -0.915000000    -4.790000000
H     0.106000000    -0.216000000    -3.030000000
C     1.093000000     2.411000000    -3.865000000
C     2.182000000     1.767000000    -4.743000000
H     3.033000000     2.440000000    -4.867000000
H     1.861000000     1.612000000    -5.775000000
C     2.728000000     0.493000000    -4.090000000
C     3.787000000     0.699000000    -3.213000000
H     4.189000000     1.684000000    -2.992000000
C     2.138000000    -0.769000000    -4.162000000
C     2.643000000    -1.798000000    -3.450000000
H     2.071000000    -2.723000000    -3.476000000
C     3.745000000    -1.650000000    -2.587000000
O     3.900000000    -2.726000000    -1.739000000
C     3.426000000    -2.586000000    -0.323000000
C     2.898000000    -3.938000000     0.208000000
C     2.372000000    -4.840000000    -0.671000000
H     2.159000000    -4.599000000    -1.709000000
C     3.002000000    -4.201000000     1.560000000
H     3.494000000    -3.505000000     2.234000000
O     4.553000000    -2.118000000     0.456000000
H     2.607000000    -1.859000000    -0.216000000
C     4.320000000    -0.355000000    -2.455000000
C     5.447000000    -0.180000000    -1.461000000
H     6.216000000     0.517000000    -1.801000000
H     5.916000000    -1.166000000    -1.436000000
C     4.807000000     0.234000000    -0.166000000
C     4.483000000    -0.783000000     0.771000000
C     3.846000000    -0.433000000     1.948000000
H     3.409000000    -1.168000000     2.619000000
C     3.597000000     0.854000000     2.316000000
O     2.950000000     1.262000000     3.484000000
C     1.583000000     1.664000000     3.395000000
H     1.189000000     1.385000000     2.407000000
C     0.713000000     0.980000000     4.475000000
C    -0.297000000     1.637000000     5.191000000
H    -0.512000000     2.660000000     4.891000000
C     0.844000000    -0.364000000     4.719000000
H     1.469000000    -0.859000000     3.980000000
C     0.156000000    -1.058000000     5.712000000
O     0.206000000    -2.457000000     5.893000000
C    -0.845000000    -0.407000000     6.381000000
H    -1.589000000    -0.910000000     6.994000000
C    -1.125000000     0.915000000     6.092000000
O    -2.254000000     1.428000000     6.756000000
C    -3.020000000     2.306000000     6.105000000
C    -3.792000000     1.910000000     5.002000000
H    -3.882000000     0.838000000     4.848000000
C    -2.825000000     3.620000000     6.335000000
H    -2.243000000     3.952000000     7.191000000
C    -3.321000000     4.636000000     5.463000000
H    -3.173000000     5.701000000     5.626000000
C    -4.153000000     4.241000000     4.422000000
H    -4.590000000     4.971000000     3.745000000
C    -4.460000000     2.857000000     4.201000000
O    -5.099000000     2.420000000     3.131000000
C    -4.870000000     2.802000000     1.816000000
C    -5.858000000     2.773000000     0.827000000
H    -6.880000000     2.562000000     1.131000000
C    -5.557000000     2.950000000    -0.525000000
O    -6.513000000     2.632000000    -1.492000000
C    -6.195000000     2.010000000    -2.652000000
C    -5.610000000     0.718000000    -2.624000000
H    -5.350000000     0.344000000    -1.637000000
C    -6.633000000     2.499000000    -3.886000000
H    -7.097000000     3.481000000    -3.931000000
C    -6.439000000     1.734000000    -4.994000000
H    -6.735000000     2.109000000    -5.971000000
C    -5.933000000     0.433000000    -4.940000000
H    -5.758000000    -0.106000000    -5.868000000
C    -5.405000000    -0.034000000    -3.744000000
O    -5.056000000    -1.329000000    -3.726000000
C    -3.753000000    -1.797000000    -3.825000000
C    -3.503000000    -3.181000000    -3.798000000
H    -4.309000000    -3.910000000    -3.770000000
C    -2.191000000    -3.671000000    -3.932000000
O    -2.085000000    -5.016000000    -3.831000000
C    -0.911000000    -5.751000000    -3.697000000
C    -0.500000000    -6.085000000    -2.468000000
H    -1.060000000    -5.798000000    -1.581000000
C    -0.182000000    -6.133000000    -4.833000000
H    -0.465000000    -5.803000000    -5.829000000
C     1.029000000    -6.830000000    -4.712000000
H     1.631000000    -7.176000000    -5.549000000
C     1.416000000    -7.169000000    -3.409000000
H     2.329000000    -7.753000000    -3.337000000
C     0.684000000    -6.775000000    -2.256000000
O     1.215000000    -7.032000000    -0.995000000
C     1.851000000    -6.110000000    -0.222000000
C     1.962000000    -6.330000000     1.117000000
H     1.620000000    -7.306000000     1.454000000
C     2.489000000    -5.421000000     2.050000000
O     2.545000000    -5.777000000     3.338000000
C     2.605000000    -4.774000000     4.268000000
C     3.743000000    -4.488000000     4.930000000
H     4.667000000    -5.029000000     4.742000000
C     3.803000000    -3.533000000     5.907000000
H     4.697000000    -3.364000000     6.502000000
C     2.605000000    -2.808000000     6.239000000
H     2.522000000    -2.072000000     7.035000000
C     1.379000000    -3.173000000     5.583000000
C     1.395000000    -4.153000000     4.622000000
H     0.524000000    -4.361000000     4.005000000
C    -0.026000000    -1.897000000     0.222000000
H     0.234000000    -2.808000000    -0.310000000
C     0.439000000    -0.748000000    -0.388000000
H     1.151000000    -0.797000000    -1.207000000
C     0.083000000     0.457000000     0.173000000
H     0.495000000     1.375000000    -0.212000000
C    -0.772000000     0.553000000     1.251000000
H    -0.959000000     1.506000000     1.738000000
C    -1.228000000    -0.652000000     1.844000000
H    -1.949000000    -0.593000000     2.655000000
C    -0.850000000    -1.900000000     1.353000000
C    -1.381000000    -3.203000000     1.908000000
O    -1.963000000    -3.162000000     2.967000000
O    -1.315000000    -4.208000000     1.283000000
O    -6.893000000    -4.974000000     3.883000000
H    -7.153000000    -4.271000000     3.287000000
H    -5.958000000    -4.831000000     4.030000000
O    -3.350000000    -1.020000000    -0.364000000
H    -3.743000000    -1.864000000    -0.587000000
H    -2.473000000    -1.239000000    -0.050000000
O    -4.288000000    -7.128000000     2.340000000
H    -3.883000000    -6.414000000     1.848000000
H    -4.250000000    -6.841000000     3.253000000
O    -3.644000000    -7.397000000    -1.410000000
H    -3.924000000    -7.801000000    -0.588000000
H    -3.426000000    -6.496000000    -1.172000000
O    -6.808000000    -8.155000000     2.003000000
H    -7.194000000    -7.771000000     1.215000000
H    -6.042000000    -7.611000000     2.183000000
O    -4.120000000    -1.751000000     3.519000000
H    -4.527000000    -2.001000000     4.348000000
H    -3.389000000    -2.360000000     3.417000000
O    -7.674000000    -2.901000000     2.390000000
H    -8.499000000    -2.954000000     1.907000000
H    -7.552000000    -1.966000000     2.553000000
O    -5.841000000    -0.186000000     1.978000000
H    -5.375000000     0.647000000     1.914000000
H    -5.317000000    -0.707000000     2.587000000
O    -5.113000000    -2.646000000     6.010000000
H    -6.026000000    -2.690000000     6.292000000
H    -4.609000000    -2.660000000     6.824000000
O    -3.741000000    -9.221000000     0.775000000
H    -4.392000000    -9.907000000     0.922000000
H    -3.877000000    -8.604000000     1.494000000
O    -1.603000000    -4.422000000     6.406000000
H    -0.952000000    -3.987000000     5.856000000
H    -1.108000000    -5.087000000     6.884000000
O    -3.551000000    -5.110000000     0.047000000
H    -2.693000000    -4.839000000     0.372000000
H    -4.166000000    -4.506000000     0.464000000
O    -1.023000000    -8.638000000     3.884000000
H    -1.143000000    -7.703000000     3.718000000
H    -0.764000000    -9.001000000     3.037000000
O    -3.833000000    -4.695000000     3.982000000
H    -3.166000000    -4.237000000     3.471000000
H    -3.614000000    -4.497000000     4.893000000
O    -6.349000000    -5.808000000    -1.702000000
H    -6.389000000    -4.852000000    -1.702000000
H    -5.417000000    -6.008000000    -1.611000000
O    -4.306000000    -5.361000000     7.335000000
H    -3.534000000    -4.873000000     7.047000000
H    -4.710000000    -4.802000000     7.997000000
O    -5.158000000    -3.301000000     0.996000000
H    -4.858000000    -2.607000000     1.582000000
H    -6.047000000    -3.496000000     1.291000000
O    -1.400000000    -6.045000000     3.243000000
H    -2.110000000    -5.638000000     3.738000000
H    -1.179000000    -5.403000000     2.568000000
O    -3.488000000    -1.997000000     8.089000000
H    -4.070000000    -2.395000000     8.736000000
H    -2.705000000    -2.546000000     8.101000000
