215
-1455.06334
C    -4.580000000     2.791000000    -0.993000000
H    -4.081000000     2.586000000    -1.936000000
C    -3.904000000     3.404000000     0.036000000
C    -4.515000000     3.569000000     1.284000000
H    -3.944000000     3.989000000     2.108000000
C    -2.452000000     3.820000000    -0.085000000
O    -2.237000000     4.666000000    -1.344000000
H    -1.911000000     2.862000000    -0.091000000
O    -1.913000000     4.582000000     1.044000000
C    -0.640000000     4.507000000     1.564000000
C    -0.505000000     3.798000000     2.763000000
H    -1.401000000     3.454000000     3.272000000
C     0.841000000     3.496000000     3.190000000
O     0.955000000     2.522000000     4.185000000
C     1.936000000     3.809000000     2.411000000
C     3.330000000     3.368000000     2.846000000
H     4.087000000     4.051000000     2.453000000
C     3.767000000     1.981000000     2.283000000
C     4.510000000     1.957000000     1.093000000
H     4.864000000     2.888000000     0.657000000
H     3.353000000     3.342000000     3.937000000
C     1.796000000     4.599000000     1.202000000
H     2.631000000     4.910000000     0.579000000
C     0.508000000     4.930000000     0.784000000
C     0.245000000     5.580000000    -0.567000000
H     1.116000000     6.189000000    -0.819000000
H    -0.602000000     6.266000000    -0.632000000
C     0.142000000     4.579000000    -1.694000000
C     1.264000000     3.995000000    -2.365000000
H     2.256000000     4.348000000    -2.093000000
C    -1.155000000     4.231000000    -2.010000000
C    -1.259000000     3.239000000    -3.005000000
H    -2.251000000     2.870000000    -3.253000000
C    -0.169000000     2.590000000    -3.563000000
O    -0.366000000     1.633000000    -4.564000000
C     0.019000000     0.349000000    -4.060000000
C    -0.947000000    -0.751000000    -4.349000000
C    -0.579000000    -2.088000000    -4.365000000
H     0.448000000    -2.414000000    -4.219000000
C    -2.287000000    -0.500000000    -4.654000000
H    -2.705000000     0.498000000    -4.761000000
O     1.355000000    -0.127000000    -4.539000000
H    -0.008000000     0.360000000    -2.960000000
C     1.105000000     3.026000000    -3.372000000
C     2.349000000     2.458000000    -4.126000000
H     3.073000000     3.275000000    -4.106000000
H     2.072000000     2.305000000    -5.171000000
C     2.930000000     1.207000000    -3.523000000
C     3.947000000     1.346000000    -2.595000000
H     4.098000000     2.337000000    -2.175000000
C     2.354000000    -0.025000000    -3.667000000
C     2.889000000    -1.152000000    -3.058000000
H     2.532000000    -2.172000000    -3.179000000
C     3.986000000    -1.032000000    -2.199000000
O     4.331000000    -2.174000000    -1.445000000
C     3.780000000    -2.232000000    -0.144000000
C     3.416000000    -3.636000000     0.137000000
C     2.896000000    -4.422000000    -0.910000000
H     2.739000000    -4.021000000    -1.908000000
C     3.394000000    -4.096000000     1.422000000
H     3.681000000    -3.462000000     2.257000000
O     4.813000000    -1.682000000     0.742000000
H     2.876000000    -1.631000000     0.039000000
C     4.502000000     0.279000000    -1.922000000
C     5.548000000     0.610000000    -0.803000000
H     5.965000000     1.550000000    -1.171000000
H     6.325000000    -0.154000000    -0.872000000
C     4.877000000     0.736000000     0.604000000
C     4.617000000    -0.425000000     1.283000000
C     3.948000000    -0.409000000     2.464000000
H     3.705000000    -1.278000000     3.071000000
C     3.437000000     0.812000000     2.925000000
O     2.559000000     0.849000000     4.006000000
C     1.207000000     1.147000000     3.785000000
H     1.002000000     0.979000000     2.717000000
C     0.245000000     0.153000000     4.417000000
C    -1.125000000     0.325000000     4.405000000
H    -1.511000000     1.247000000     3.977000000
C     0.818000000    -1.075000000     4.778000000
H     1.854000000    -1.361000000     4.612000000
C    -0.033000000    -2.062000000     5.232000000
O     0.341000000    -3.228000000     5.806000000
C    -1.419000000    -1.897000000     5.308000000
H    -2.072000000    -2.665000000     5.716000000
C    -1.986000000    -0.709000000     4.867000000
O    -3.324000000    -0.509000000     4.745000000
C    -3.861000000     0.820000000     4.710000000
C    -4.758000000     1.132000000     3.661000000
H    -4.892000000     0.435000000     2.838000000
C    -3.577000000     1.682000000     5.747000000
H    -2.936000000     1.494000000     6.604000000
C    -4.220000000     2.915000000     5.730000000
H    -3.912000000     3.704000000     6.411000000
C    -5.202000000     3.250000000     4.715000000
H    -5.656000000     4.237000000     4.737000000
C    -5.421000000     2.346000000     3.700000000
O    -6.320000000     2.770000000     2.691000000
C    -5.825000000     3.049000000     1.463000000
C    -6.516000000     2.445000000     0.400000000
H    -7.523000000     2.086000000     0.595000000
C    -5.892000000     2.279000000    -0.856000000
O    -6.493000000     1.539000000    -1.851000000
C    -6.050000000     1.341000000    -3.146000000
C    -5.474000000     0.136000000    -3.511000000
H    -5.105000000    -0.612000000    -2.814000000
C    -6.454000000     2.245000000    -4.112000000
H    -7.046000000     3.124000000    -3.869000000
C    -6.060000000     2.082000000    -5.515000000
H    -6.435000000     2.675000000    -6.345000000
C    -5.390000000     0.934000000    -5.804000000
H    -5.111000000     0.671000000    -6.821000000
C    -5.175000000    -0.103000000    -4.828000000
O    -4.519000000    -1.240000000    -5.157000000
C    -3.219000000    -1.548000000    -4.866000000
C    -2.853000000    -2.855000000    -4.847000000
H    -3.565000000    -3.651000000    -5.048000000
C    -1.493000000    -3.136000000    -4.507000000
O    -1.170000000    -4.497000000    -4.391000000
C     0.060000000    -4.935000000    -4.157000000
C     0.522000000    -5.475000000    -2.938000000
H    -0.176000000    -5.498000000    -2.105000000
C     0.900000000    -4.902000000    -5.282000000
H     0.637000000    -4.450000000    -6.235000000
C     2.156000000    -5.531000000    -5.118000000
H     2.776000000    -5.461000000    -6.008000000
C     2.612000000    -6.072000000    -3.919000000
H     3.634000000    -6.416000000    -3.784000000
C     1.767000000    -6.096000000    -2.826000000
O     2.137000000    -6.603000000    -1.597000000
C     2.570000000    -5.796000000    -0.617000000
C     2.613000000    -6.221000000     0.689000000
H     2.168000000    -7.198000000     0.860000000
C     3.012000000    -5.373000000     1.730000000
O     3.257000000    -5.883000000     3.015000000
C     3.070000000    -5.100000000     4.130000000
C     4.067000000    -4.887000000     5.029000000
H     5.111000000    -5.167000000     4.916000000
C     3.775000000    -4.255000000     6.268000000
H     4.554000000    -4.168000000     7.022000000
C     2.529000000    -3.747000000     6.543000000
H     2.259000000    -3.403000000     7.537000000
C     1.560000000    -3.838000000     5.492000000
C     1.796000000    -4.499000000     4.294000000
H     1.028000000    -4.694000000     3.550000000
C    -0.702000000    -2.537000000     0.151000000
H    -0.511000000    -3.526000000    -0.257000000
C    -0.026000000    -1.450000000    -0.419000000
H     0.628000000    -1.734000000    -1.239000000
C    -0.296000000    -0.134000000    -0.083000000
H     0.187000000     0.633000000    -0.656000000
C    -1.194000000     0.181000000     0.915000000
H    -1.325000000     1.211000000     1.236000000
C    -1.808000000    -0.882000000     1.546000000
H    -2.566000000    -0.481000000     2.214000000
C    -1.608000000    -2.214000000     1.182000000
C    -2.490000000    -3.345000000     1.660000000
O    -3.436000000    -3.137000000     2.395000000
O    -2.357000000    -4.466000000     1.226000000
O    -7.062000000    -4.141000000     4.389000000
H    -7.977000000    -3.968000000     4.168000000
H    -6.589000000    -3.375000000     4.063000000
O    -3.578000000    -1.318000000    -1.208000000
H    -3.205000000    -1.678000000    -2.013000000
H    -2.861000000    -1.357000000    -0.574000000
O     0.075000000    -9.960000000     0.671000000
H    -0.392000000   -10.545000000     1.268000000
H    -0.096000000    -9.083000000     1.014000000
O    -5.913000000    -7.213000000    -2.935000000
H    -5.459000000    -6.765000000    -2.220000000
H    -5.399000000    -7.003000000    -3.714000000
O    -2.546000000    -5.040000000    -1.360000000
H    -2.402000000    -4.899000000    -0.425000000
H    -2.304000000    -5.954000000    -1.505000000
O    -6.351000000    -1.672000000    -0.634000000
H    -5.999000000    -2.265000000     0.030000000
H    -5.605000000    -1.133000000    -0.894000000
O    -5.604000000    -3.929000000     0.848000000
H    -5.853000000    -4.728000000     1.311000000
H    -4.926000000    -3.535000000     1.397000000
O    -5.587000000    -2.082000000     3.599000000
H    -4.864000000    -2.669000000     3.377000000
H    -5.215000000    -1.478000000     4.241000000
O    -0.765000000    -6.358000000     5.075000000
H    -0.269000000    -6.409000000     4.258000000
H    -1.681000000    -6.418000000     4.804000000
O    -3.890000000    -6.921000000     5.141000000
H    -4.695000000    -7.362000000     4.870000000
H    -3.904000000    -6.961000000     6.097000000
O    -4.752000000    -4.259000000     5.844000000
H    -5.562000000    -4.223000000     5.335000000
H    -4.204000000    -4.890000000     5.378000000
O    -5.468000000    -2.216000000     7.580000000
H    -6.308000000    -1.935000000     7.216000000
H    -5.059000000    -2.719000000     6.877000000
O    -3.920000000    -6.345000000     2.379000000
H    -3.746000000    -6.163000000     3.303000000
H    -3.531000000    -5.605000000     1.912000000
O    -2.592000000    -8.608000000     1.939000000
H    -3.207000000    -7.932000000     2.224000000
H    -3.122000000    -9.208000000     1.415000000
O    -8.512000000    -4.331000000     0.360000000
H    -8.347000000    -4.646000000    -0.529000000
H    -7.653000000    -4.340000000     0.781000000
O    -6.493000000    -6.516000000     0.772000000
H    -7.326000000    -6.918000000     1.018000000
H    -5.853000000    -6.910000000     1.365000000
O    -7.897000000    -0.821000000     1.853000000
H    -7.620000000    -1.003000000     0.954000000
H    -7.500000000    -1.520000000     2.372000000
O    -4.851000000    -3.821000000    -2.395000000
H    -5.378000000    -3.749000000    -1.599000000
H    -4.024000000    -4.204000000    -2.102000000
O    -0.734000000    -6.475000000     2.110000000
H    -1.304000000    -7.239000000     2.024000000
H    -1.288000000    -5.735000000     1.862000000
