215
-1453.07151
C    -4.122000000     3.228000000    -2.039000000
H    -3.860000000     3.615000000    -3.020000000
C    -3.260000000     3.456000000    -0.910000000
C    -3.724000000     3.169000000     0.371000000
H    -3.059000000     3.260000000     1.226000000
C    -1.844000000     3.838000000    -1.006000000
O    -1.567000000     4.219000000    -2.326000000
H    -1.420000000     2.830000000    -0.889000000
O    -1.406000000     4.830000000    -0.058000000
C    -0.172000000     4.632000000     0.498000000
C    -0.172000000     4.008000000     1.814000000
H    -1.110000000     3.808000000     2.327000000
C     1.037000000     3.573000000     2.395000000
O     0.932000000     2.882000000     3.598000000
C     2.228000000     3.834000000     1.686000000
C     3.695000000     3.455000000     2.263000000
H     4.511000000     3.987000000     1.770000000
C     3.952000000     1.952000000     2.166000000
C     4.692000000     1.551000000     1.090000000
H     5.000000000     2.293000000     0.359000000
H     3.812000000     3.657000000     3.330000000
C     2.223000000     4.494000000     0.471000000
H     3.178000000     4.552000000    -0.044000000
C     1.048000000     4.871000000    -0.143000000
C     1.139000000     5.327000000    -1.563000000
H     2.078000000     5.808000000    -1.843000000
H     0.423000000     6.150000000    -1.615000000
C     0.849000000     4.163000000    -2.536000000
C     1.987000000     3.475000000    -3.056000000
H     3.006000000     3.608000000    -2.703000000
C    -0.404000000     3.800000000    -2.972000000
C    -0.566000000     2.776000000    -3.931000000
H    -1.547000000     2.427000000    -4.242000000
C     0.531000000     2.118000000    -4.319000000
O     0.301000000     0.943000000    -4.987000000
C     0.383000000    -0.215000000    -4.101000000
C    -0.654000000    -1.263000000    -4.351000000
C    -0.663000000    -2.372000000    -3.529000000
H     0.235000000    -2.521000000    -2.934000000
C    -1.883000000    -0.845000000    -4.906000000
H    -2.001000000     0.141000000    -5.349000000
O     1.621000000    -0.833000000    -4.397000000
H     0.177000000    -0.023000000    -3.038000000
C     1.826000000     2.383000000    -3.879000000
C     3.119000000     1.646000000    -4.365000000
H     3.948000000     2.354000000    -4.427000000
H     2.988000000     1.306000000    -5.395000000
C     3.482000000     0.423000000    -3.506000000
C     4.516000000     0.564000000    -2.621000000
H     5.036000000     1.511000000    -2.506000000
C     2.719000000    -0.709000000    -3.518000000
C     3.083000000    -1.794000000    -2.767000000
H     2.512000000    -2.705000000    -2.927000000
C     4.029000000    -1.605000000    -1.785000000
O     4.184000000    -2.713000000    -0.910000000
C     3.642000000    -2.567000000     0.460000000
C     3.131000000    -3.942000000     0.988000000
C     2.703000000    -4.930000000     0.098000000
H     2.962000000    -4.812000000    -0.951000000
C     3.062000000    -4.277000000     2.354000000
H     3.485000000    -3.559000000     3.052000000
O     4.671000000    -2.058000000     1.379000000
H     2.763000000    -1.925000000     0.302000000
C     4.730000000    -0.410000000    -1.652000000
C     5.647000000    -0.157000000    -0.437000000
H     6.320000000     0.669000000    -0.677000000
H     6.228000000    -1.070000000    -0.295000000
C     4.930000000     0.241000000     0.822000000
C     4.480000000    -0.743000000     1.681000000
C     3.653000000    -0.361000000     2.772000000
H     3.269000000    -1.121000000     3.448000000
C     3.365000000     0.983000000     3.037000000
O     2.439000000     1.281000000     3.986000000
C     1.178000000     1.507000000     3.610000000
H     1.019000000     1.011000000     2.641000000
C     0.199000000     0.808000000     4.512000000
C    -0.884000000     1.574000000     5.041000000
H    -0.938000000     2.653000000     4.925000000
C     0.172000000    -0.583000000     4.692000000
H     1.019000000    -1.155000000     4.321000000
C    -0.902000000    -1.207000000     5.354000000
O    -0.966000000    -2.569000000     5.530000000
C    -2.031000000    -0.503000000     5.667000000
H    -2.882000000    -0.971000000     6.155000000
C    -1.992000000     0.908000000     5.548000000
O    -3.052000000     1.681000000     6.062000000
C    -3.845000000     2.439000000     5.163000000
C    -4.540000000     1.881000000     4.055000000
H    -4.487000000     0.805000000     3.910000000
C    -3.993000000     3.780000000     5.431000000
H    -3.568000000     4.101000000     6.378000000
C    -4.556000000     4.631000000     4.571000000
H    -4.513000000     5.696000000     4.785000000
C    -5.142000000     4.088000000     3.357000000
H    -5.536000000     4.707000000     2.554000000
C    -5.077000000     2.717000000     3.113000000
O    -5.381000000     2.153000000     1.879000000
C    -4.970000000     2.639000000     0.670000000
C    -5.769000000     2.388000000    -0.446000000
H    -6.762000000     1.995000000    -0.246000000
C    -5.386000000     2.643000000    -1.746000000
O    -6.198000000     2.164000000    -2.774000000
C    -5.666000000     1.717000000    -4.025000000
C    -5.068000000     0.417000000    -4.098000000
H    -4.964000000    -0.187000000    -3.200000000
C    -5.878000000     2.527000000    -5.174000000
H    -6.287000000     3.531000000    -5.084000000
C    -5.426000000     1.990000000    -6.372000000
H    -5.260000000     2.642000000    -7.226000000
C    -5.036000000     0.678000000    -6.534000000
H    -4.619000000     0.331000000    -7.475000000
C    -4.858000000    -0.141000000    -5.384000000
O    -4.205000000    -1.338000000    -5.474000000
C    -2.995000000    -1.609000000    -4.779000000
C    -2.941000000    -2.806000000    -3.998000000
H    -3.793000000    -3.481000000    -3.977000000
C    -1.772000000    -3.204000000    -3.391000000
O    -1.766000000    -4.398000000    -2.699000000
C    -0.688000000    -5.268000000    -2.740000000
C    -0.122000000    -5.717000000    -1.567000000
H    -0.444000000    -5.336000000    -0.601000000
C    -0.152000000    -5.616000000    -3.928000000
H    -0.608000000    -5.203000000    -4.824000000
C     0.932000000    -6.550000000    -3.980000000
H     1.388000000    -6.824000000    -4.928000000
C     1.510000000    -7.083000000    -2.803000000
H     2.355000000    -7.760000000    -2.894000000
C     0.956000000    -6.639000000    -1.591000000
O     1.599000000    -6.982000000    -0.397000000
C     2.011000000    -6.016000000     0.524000000
C     1.916000000    -6.309000000     1.956000000
H     1.352000000    -7.168000000     2.310000000
C     2.570000000    -5.448000000     2.862000000
O     2.445000000    -5.721000000     4.174000000
C     1.926000000    -4.796000000     5.049000000
C     2.557000000    -4.681000000     6.280000000
H     3.429000000    -5.286000000     6.517000000
C     1.992000000    -3.831000000     7.250000000
H     2.532000000    -3.671000000     8.179000000
C     0.829000000    -3.045000000     6.962000000
H     0.312000000    -2.408000000     7.676000000
C     0.188000000    -3.278000000     5.759000000
C     0.712000000    -4.151000000     4.762000000
H     0.227000000    -4.357000000     3.811000000
C    -0.963000000    -1.894000000     0.496000000
H    -0.671000000    -2.889000000     0.171000000
C    -0.500000000    -0.721000000    -0.014000000
H     0.283000000    -0.718000000    -0.768000000
C    -0.718000000     0.487000000     0.629000000
H    -0.355000000     1.421000000     0.212000000
C    -1.449000000     0.611000000     1.787000000
H    -1.641000000     1.554000000     2.292000000
C    -1.995000000    -0.555000000     2.250000000
H    -2.667000000    -0.570000000     3.104000000
C    -1.785000000    -1.816000000     1.624000000
C    -2.390000000    -3.063000000     2.198000000
O    -3.221000000    -2.928000000     3.136000000
O    -2.086000000    -4.165000000     1.779000000
O    -3.731000000    -7.351000000    -2.258000000
H    -3.019000000    -7.946000000    -2.494000000
H    -3.564000000    -7.131000000    -1.341000000
O    -3.396000000     0.004000000    -0.609000000
H    -2.583000000    -0.165000000    -0.133000000
H    -3.605000000     0.917000000    -0.410000000
O    -1.005000000    -9.218000000     2.520000000
H    -0.432000000    -9.464000000     3.246000000
H    -1.329000000    -8.348000000     2.754000000
O    -5.924000000    -5.174000000     1.514000000
H    -5.532000000    -5.097000000     2.383000000
H    -5.501000000    -4.487000000     0.999000000
O    -2.996000000    -7.112000000     0.468000000
H    -3.797000000    -7.375000000     0.920000000
H    -2.370000000    -6.936000000     1.171000000
O    -4.998000000    -2.118000000    -1.321000000
H    -4.549000000    -2.912000000    -1.031000000
H    -4.293000000    -1.498000000    -1.506000000
O    -5.523000000    -1.140000000     1.465000000
H    -5.296000000    -1.104000000     0.535000000
H    -4.724000000    -1.446000000     1.894000000
O    -4.865000000    -1.629000000     4.714000000
H    -4.180000000    -1.954000000     4.130000000
H    -4.980000000    -2.326000000     5.360000000
O    -2.082000000    -5.205000000     5.185000000
H    -2.163000000    -4.292000000     5.459000000
H    -1.839000000    -5.675000000     5.983000000
O    -5.375000000    -3.706000000     6.253000000
H    -5.434000000    -4.574000000     5.854000000
H    -4.821000000    -3.833000000     7.023000000
O    -1.106000000    -8.941000000    -0.286000000
H    -0.927000000    -9.132000000     0.635000000
H    -1.859000000    -8.351000000    -0.266000000
O    -5.878000000    -0.275000000     6.968000000
H    -6.806000000    -0.463000000     6.822000000
H    -5.435000000    -0.657000000     6.211000000
O    -7.455000000    -4.901000000    -1.416000000
H    -6.766000000    -5.149000000    -0.799000000
H    -7.105000000    -4.134000000    -1.870000000
O    -4.286000000    -5.152000000     3.648000000
H    -3.590000000    -5.509000000     4.201000000
H    -3.883000000    -4.403000000     3.209000000
O    -8.420000000    -5.225000000     3.497000000
H    -7.766000000    -4.945000000     2.857000000
H    -8.570000000    -4.452000000     4.041000000
O    -5.251000000    -8.136000000     3.001000000
H    -5.967000000    -8.392000000     2.419000000
H    -5.252000000    -7.179000000     2.976000000
O    -7.213000000    -2.144000000     3.324000000
H    -7.040000000    -1.486000000     2.649000000
H    -6.381000000    -2.233000000     3.790000000
O    -3.770000000    -4.155000000    -0.255000000
H    -3.330000000    -4.212000000     0.593000000
H    -3.448000000    -4.914000000    -0.742000000
O    -1.581000000    -6.551000000     2.789000000
H    -1.574000000    -6.263000000     3.702000000
H    -1.610000000    -5.739000000     2.283000000
