215
-1446.70411
C    -3.781000000     3.167000000    -2.657000000
H    -3.315000000     3.020000000    -3.628000000
C    -2.893000000     3.497000000    -1.587000000
C    -3.546000000     3.792000000    -0.340000000
H    -2.941000000     4.277000000     0.422000000
C    -1.379000000     3.839000000    -1.747000000
O    -1.038000000     3.909000000    -3.107000000
H    -0.835000000     2.991000000    -1.306000000
O    -0.986000000     4.914000000    -0.976000000
C     0.135000000     4.761000000    -0.231000000
C    -0.010000000     4.442000000     1.098000000
H    -0.979000000     4.435000000     1.591000000
C     1.067000000     3.927000000     1.874000000
O     0.851000000     3.320000000     3.116000000
C     2.325000000     3.984000000     1.308000000
C     3.608000000     3.656000000     2.071000000
H     4.549000000     4.086000000     1.722000000
C     3.856000000     2.138000000     1.973000000
C     4.705000000     1.581000000     1.023000000
H     5.057000000     2.222000000     0.219000000
H     3.442000000     3.952000000     3.108000000
C     2.496000000     4.401000000    -0.016000000
H     3.475000000     4.352000000    -0.485000000
C     1.396000000     4.700000000    -0.781000000
C     1.581000000     4.905000000    -2.224000000
H     2.632000000     5.195000000    -2.286000000
H     1.067000000     5.806000000    -2.564000000
C     1.311000000     3.694000000    -3.145000000
C     2.411000000     2.877000000    -3.558000000
H     3.392000000     3.175000000    -3.198000000
C     0.016000000     3.250000000    -3.496000000
C    -0.233000000     2.083000000    -4.234000000
H    -1.260000000     1.749000000    -4.357000000
C     0.871000000     1.343000000    -4.614000000
O     0.661000000     0.115000000    -5.071000000
C     0.723000000    -0.960000000    -4.092000000
C    -0.536000000    -1.831000000    -3.887000000
C    -0.467000000    -2.987000000    -3.072000000
H     0.424000000    -3.421000000    -2.625000000
C    -1.771000000    -1.321000000    -4.336000000
H    -1.780000000    -0.421000000    -4.945000000
O     1.863000000    -1.725000000    -4.212000000
H     0.758000000    -0.397000000    -3.148000000
C     2.190000000     1.759000000    -4.326000000
C     3.408000000     0.839000000    -4.509000000
H     4.273000000     1.478000000    -4.703000000
H     3.215000000     0.236000000    -5.398000000
C     3.599000000    -0.218000000    -3.368000000
C     4.403000000     0.199000000    -2.321000000
H     4.946000000     1.138000000    -2.381000000
C     2.934000000    -1.446000000    -3.339000000
C     3.191000000    -2.398000000    -2.351000000
H     2.713000000    -3.373000000    -2.303000000
C     4.072000000    -2.009000000    -1.342000000
O     4.257000000    -2.937000000    -0.312000000
C     3.511000000    -2.669000000     0.905000000
C     3.030000000    -3.980000000     1.580000000
C     2.559000000    -5.072000000     0.842000000
H     2.733000000    -5.091000000    -0.231000000
C     2.878000000    -4.088000000     2.986000000
H     3.170000000    -3.228000000     3.584000000
O     4.447000000    -2.056000000     1.822000000
H     2.617000000    -2.079000000     0.653000000
C     4.592000000    -0.684000000    -1.291000000
C     5.592000000    -0.360000000    -0.217000000
H     6.452000000     0.248000000    -0.505000000
H     6.053000000    -1.325000000     0.005000000
C     4.866000000     0.229000000     0.994000000
C     4.345000000    -0.651000000     1.982000000
C     3.715000000    -0.048000000     3.058000000
H     3.367000000    -0.670000000     3.878000000
C     3.327000000     1.328000000     2.999000000
O     2.315000000     1.705000000     3.792000000
C     0.987000000     1.906000000     3.288000000
H     1.111000000     1.396000000     2.321000000
C    -0.165000000     1.350000000     4.216000000
C    -1.285000000     2.079000000     4.445000000
H    -1.387000000     3.061000000     3.990000000
C    -0.163000000    -0.010000000     4.593000000
H     0.749000000    -0.590000000     4.480000000
C    -1.280000000    -0.564000000     5.139000000
O    -1.390000000    -1.933000000     5.497000000
C    -2.427000000     0.212000000     5.388000000
H    -3.342000000    -0.293000000     5.688000000
C    -2.451000000     1.505000000     4.942000000
O    -3.568000000     2.342000000     5.101000000
C    -3.877000000     3.397000000     4.249000000
C    -4.386000000     3.109000000     2.986000000
H    -4.291000000     2.136000000     2.511000000
C    -4.048000000     4.655000000     4.739000000
H    -3.836000000     4.732000000     5.802000000
C    -4.489000000     5.723000000     3.961000000
H    -4.759000000     6.649000000     4.463000000
C    -4.883000000     5.485000000     2.678000000
H    -5.446000000     6.184000000     2.066000000
C    -4.938000000     4.128000000     2.288000000
O    -5.564000000     3.703000000     1.127000000
C    -4.941000000     3.577000000    -0.136000000
C    -5.694000000     3.143000000    -1.213000000
H    -6.768000000     3.014000000    -1.112000000
C    -5.168000000     2.969000000    -2.477000000
O    -5.917000000     2.569000000    -3.565000000
C    -5.440000000     1.641000000    -4.432000000
C    -4.950000000     0.451000000    -4.016000000
H    -4.771000000     0.391000000    -2.945000000
C    -5.610000000     1.853000000    -5.766000000
H    -6.085000000     2.764000000    -6.121000000
C    -5.396000000     0.837000000    -6.731000000
H    -5.684000000     1.012000000    -7.765000000
C    -4.859000000    -0.360000000    -6.269000000
H    -4.863000000    -1.173000000    -6.991000000
C    -4.598000000    -0.548000000    -4.929000000
O    -4.111000000    -1.708000000    -4.402000000
C    -2.907000000    -2.056000000    -4.033000000
C    -2.832000000    -3.229000000    -3.291000000
H    -3.753000000    -3.689000000    -2.942000000
C    -1.568000000    -3.727000000    -2.888000000
O    -1.591000000    -4.806000000    -2.048000000
C    -0.564000000    -5.698000000    -2.006000000
C     0.008000000    -5.994000000    -0.780000000
H    -0.254000000    -5.366000000     0.069000000
C    -0.160000000    -6.499000000    -3.087000000
H    -0.639000000    -6.213000000    -4.020000000
C     0.761000000    -7.537000000    -2.948000000
H     0.941000000    -8.127000000    -3.843000000
C     1.315000000    -7.758000000    -1.672000000
H     2.073000000    -8.520000000    -1.510000000
C     0.984000000    -6.960000000    -0.555000000
O     1.462000000    -7.199000000     0.763000000
C     1.977000000    -6.139000000     1.503000000
C     1.911000000    -6.241000000     2.883000000
H     1.395000000    -7.117000000     3.267000000
C     2.330000000    -5.180000000     3.663000000
O     2.117000000    -5.216000000     5.021000000
C     1.366000000    -4.252000000     5.764000000
C     1.772000000    -3.975000000     7.088000000
H     2.553000000    -4.633000000     7.459000000
C     1.061000000    -3.053000000     7.810000000
H     1.252000000    -2.966000000     8.877000000
C    -0.031000000    -2.405000000     7.271000000
H    -0.609000000    -1.757000000     7.926000000
C    -0.308000000    -2.575000000     5.975000000
C     0.348000000    -3.515000000     5.185000000
H    -0.074000000    -3.628000000     4.189000000
C    -0.662000000    -2.170000000     0.778000000
H    -0.330000000    -3.203000000     0.718000000
C    -0.018000000    -1.245000000    -0.026000000
H     0.845000000    -1.500000000    -0.636000000
C    -0.431000000     0.119000000    -0.099000000
H    -0.008000000     0.756000000    -0.819000000
C    -1.461000000     0.505000000     0.722000000
H    -1.801000000     1.533000000     0.640000000
C    -2.096000000    -0.410000000     1.543000000
H    -2.793000000     0.010000000     2.263000000
C    -1.748000000    -1.769000000     1.580000000
C    -2.538000000    -2.735000000     2.449000000
O    -3.436000000    -2.297000000     3.097000000
O    -2.228000000    -3.886000000     2.422000000
O    -4.222000000    -7.042000000    -0.846000000
H    -4.571000000    -6.815000000     0.016000000
H    -4.290000000    -6.233000000    -1.353000000
O    -4.460000000    -4.172000000    -0.006000000
H    -4.730000000    -3.610000000    -0.732000000
H    -3.512000000    -4.257000000    -0.109000000
O    -1.971000000    -5.988000000     7.516000000
H    -2.260000000    -5.120000000     7.236000000
H    -1.583000000    -5.845000000     8.379000000
O    -8.094000000    -4.960000000     1.920000000
H    -7.916000000    -5.575000000     2.632000000
H    -7.520000000    -4.215000000     2.099000000
O    -4.729000000    -5.839000000     7.670000000
H    -4.600000000    -6.768000000     7.482000000
H    -3.959000000    -5.410000000     7.297000000
O    -4.910000000    -6.415000000     1.721000000
H    -4.409000000    -5.962000000     2.399000000
H    -5.507000000    -5.749000000     1.379000000
O    -5.385000000     0.046000000     1.788000000
H    -6.236000000     0.018000000     2.225000000
H    -5.004000000    -0.817000000     1.950000000
O    -6.424000000    -0.027000000    -0.808000000
H    -5.991000000     0.382000000    -0.059000000
H    -7.351000000    -0.038000000    -0.573000000
O    -7.505000000    -0.348000000     3.536000000
H    -6.953000000    -1.061000000     3.857000000
H    -7.543000000     0.272000000     4.264000000
O    -2.748000000    -7.901000000     4.868000000
H    -3.069000000    -7.008000000     4.743000000
H    -3.528000000    -8.407000000     5.094000000
O    -3.230000000    -3.554000000     6.699000000
H    -2.931000000    -2.917000000     6.050000000
H    -3.222000000    -3.074000000     7.527000000
O    -5.562000000    -1.778000000     4.806000000
H    -5.452000000    -2.510000000     5.413000000
H    -4.730000000    -1.730000000     4.336000000
O    -2.310000000    -8.536000000     0.676000000
H    -1.762000000    -7.918000000     1.160000000
H    -2.876000000    -7.984000000     0.138000000
O    -5.810000000    -2.439000000    -1.868000000
H    -5.259000000    -2.217000000    -2.619000000
H    -5.808000000    -1.649000000    -1.328000000
O    -8.043000000    -2.476000000     5.575000000
H    -7.292000000    -2.075000000     5.137000000
H    -7.733000000    -3.344000000     5.836000000
O    -3.639000000    -5.408000000     4.189000000
H    -3.744000000    -4.970000000     5.034000000
H    -3.303000000    -4.728000000     3.606000000
O    -8.328000000    -1.396000000     1.260000000
H    -7.645000000    -2.047000000     1.420000000
H    -8.490000000    -1.004000000     2.119000000
O    -5.825000000    -3.101000000     2.051000000
H    -5.073000000    -3.048000000     2.642000000
H    -5.461000000    -3.426000000     1.228000000
O    -1.562000000    -6.398000000     2.155000000
H    -2.229000000    -6.631000000     2.800000000
H    -1.504000000    -5.443000000     2.205000000
