215
-1455.99225
C    -4.312000000     2.674000000    -1.692000000
H    -4.044000000     2.773000000    -2.741000000
C    -3.405000000     2.942000000    -0.600000000
C    -3.827000000     2.595000000     0.711000000
H    -3.151000000     2.743000000     1.550000000
C    -1.926000000     3.455000000    -0.818000000
O    -1.767000000     4.076000000    -2.101000000
H    -1.265000000     2.585000000    -0.690000000
O    -1.548000000     4.344000000     0.196000000
C    -0.267000000     4.236000000     0.663000000
C    -0.101000000     3.924000000     2.002000000
H    -0.958000000     3.756000000     2.650000000
C     1.173000000     3.775000000     2.549000000
O     1.221000000     3.298000000     3.839000000
C     2.261000000     4.002000000     1.801000000
C     3.695000000     3.711000000     2.275000000
H     4.435000000     4.315000000     1.744000000
C     4.132000000     2.325000000     2.074000000
C     4.666000000     1.956000000     0.824000000
H     4.863000000     2.664000000     0.023000000
H     3.733000000     3.831000000     3.359000000
C     2.141000000     4.429000000     0.498000000
H     3.051000000     4.648000000    -0.054000000
C     0.859000000     4.522000000    -0.132000000
C     0.777000000     5.056000000    -1.511000000
H     1.749000000     5.498000000    -1.742000000
H    -0.017000000     5.804000000    -1.453000000
C     0.594000000     4.005000000    -2.571000000
C     1.652000000     3.440000000    -3.270000000
H     2.605000000     3.775000000    -2.870000000
C    -0.723000000     3.524000000    -2.793000000
C    -0.974000000     2.566000000    -3.768000000
H    -2.010000000     2.436000000    -4.072000000
C     0.095000000     1.956000000    -4.421000000
O    -0.223000000     0.802000000    -5.064000000
C    -0.073000000    -0.438000000    -4.341000000
C    -1.269000000    -1.353000000    -4.657000000
C    -1.158000000    -2.702000000    -4.370000000
H    -0.230000000    -3.139000000    -4.009000000
C    -2.555000000    -0.883000000    -4.925000000
H    -2.700000000     0.179000000    -5.105000000
O     1.306000000    -0.922000000    -4.626000000
H    -0.103000000    -0.267000000    -3.254000000
C     1.424000000     2.330000000    -4.074000000
C     2.609000000     1.660000000    -4.728000000
H     3.428000000     2.381000000    -4.682000000
H     2.505000000     1.525000000    -5.806000000
C     3.109000000     0.494000000    -3.841000000
C     4.101000000     0.770000000    -2.898000000
H     4.547000000     1.760000000    -2.854000000
C     2.423000000    -0.690000000    -3.834000000
C     2.805000000    -1.642000000    -2.853000000
H     2.387000000    -2.644000000    -2.901000000
C     3.865000000    -1.436000000    -1.989000000
O     4.179000000    -2.408000000    -1.081000000
C     3.447000000    -2.261000000     0.216000000
C     2.816000000    -3.596000000     0.724000000
C     2.072000000    -4.457000000    -0.102000000
H     2.125000000    -4.242000000    -1.166000000
C     2.775000000    -3.861000000     2.138000000
H     3.296000000    -3.254000000     2.874000000
O     4.442000000    -1.724000000     1.182000000
H     2.764000000    -1.410000000     0.075000000
C     4.520000000    -0.187000000    -1.963000000
C     5.514000000     0.150000000    -0.780000000
H     6.149000000     0.937000000    -1.191000000
H     6.214000000    -0.658000000    -0.556000000
C     4.796000000     0.597000000     0.510000000
C     4.511000000    -0.338000000     1.482000000
C     3.911000000     0.008000000     2.704000000
H     3.499000000    -0.798000000     3.305000000
C     3.766000000     1.363000000     3.027000000
O     2.990000000     1.718000000     4.154000000
C     1.558000000     1.908000000     3.872000000
H     1.473000000     1.424000000     2.888000000
C     0.779000000     1.074000000     4.917000000
C    -0.627000000     1.431000000     4.987000000
H    -0.947000000     2.272000000     4.377000000
C     1.236000000    -0.158000000     5.460000000
H     2.273000000    -0.449000000     5.313000000
C     0.357000000    -0.910000000     6.250000000
O     0.741000000    -1.992000000     6.960000000
C    -0.974000000    -0.486000000     6.472000000
H    -1.706000000    -1.106000000     6.984000000
C    -1.453000000     0.647000000     5.798000000
O    -2.786000000     1.012000000     6.004000000
C    -3.416000000     1.881000000     5.306000000
C    -4.123000000     1.447000000     4.206000000
H    -4.250000000     0.398000000     3.951000000
C    -3.276000000     3.235000000     5.603000000
H    -2.732000000     3.579000000     6.479000000
C    -3.997000000     4.191000000     4.848000000
H    -3.961000000     5.247000000     5.103000000
C    -4.742000000     3.722000000     3.705000000
H    -5.408000000     4.455000000     3.257000000
C    -4.815000000     2.350000000     3.394000000
O    -5.391000000     1.930000000     2.246000000
C    -5.133000000     2.226000000     0.959000000
C    -6.021000000     1.955000000    -0.059000000
H    -6.986000000     1.522000000     0.192000000
C    -5.644000000     2.274000000    -1.359000000
O    -6.478000000     1.729000000    -2.270000000
C    -6.159000000     1.446000000    -3.558000000
C    -5.673000000     0.174000000    -3.835000000
H    -5.516000000    -0.475000000    -2.978000000
C    -6.272000000     2.410000000    -4.527000000
H    -6.490000000     3.446000000    -4.279000000
C    -5.983000000     2.014000000    -5.812000000
H    -5.983000000     2.756000000    -6.606000000
C    -5.585000000     0.757000000    -6.173000000
H    -5.362000000     0.605000000    -7.226000000
C    -5.428000000    -0.161000000    -5.140000000
O    -4.897000000    -1.381000000    -5.425000000
C    -3.620000000    -1.800000000    -5.049000000
C    -3.495000000    -3.146000000    -4.804000000
H    -4.309000000    -3.844000000    -4.982000000
C    -2.222000000    -3.576000000    -4.478000000
O    -2.116000000    -4.915000000    -3.991000000
C    -0.884000000    -5.455000000    -3.484000000
C    -0.629000000    -5.632000000    -2.082000000
H    -1.323000000    -5.231000000    -1.348000000
C     0.043000000    -5.936000000    -4.410000000
H    -0.194000000    -5.769000000    -5.458000000
C     1.205000000    -6.584000000    -3.990000000
H     1.952000000    -6.879000000    -4.724000000
C     1.397000000    -6.808000000    -2.637000000
H     2.279000000    -7.354000000    -2.315000000
C     0.515000000    -6.335000000    -1.716000000
O     0.761000000    -6.510000000    -0.365000000
C     1.391000000    -5.625000000     0.407000000
C     1.493000000    -5.904000000     1.729000000
H     1.048000000    -6.793000000     2.168000000
C     2.138000000    -5.012000000     2.566000000
O     2.185000000    -5.406000000     3.861000000
C     2.412000000    -4.503000000     4.875000000
C     3.637000000    -4.507000000     5.515000000
H     4.316000000    -5.297000000     5.205000000
C     3.892000000    -3.735000000     6.632000000
H     4.778000000    -3.907000000     7.238000000
C     2.989000000    -2.758000000     6.969000000
H     3.176000000    -2.047000000     7.771000000
C     1.698000000    -2.831000000     6.408000000
C     1.427000000    -3.642000000     5.263000000
H     0.466000000    -3.640000000     4.755000000
C    -1.039000000    -2.524000000     0.597000000
H    -1.150000000    -3.553000000     0.264000000
C    -0.310000000    -1.604000000    -0.149000000
H     0.186000000    -1.907000000    -1.068000000
C    -0.240000000    -0.266000000     0.215000000
H     0.221000000     0.501000000    -0.365000000
C    -0.882000000     0.072000000     1.394000000
H    -0.644000000     1.072000000     1.749000000
C    -1.495000000    -0.833000000     2.263000000
H    -1.929000000    -0.533000000     3.214000000
C    -1.637000000    -2.173000000     1.846000000
C    -2.414000000    -3.158000000     2.684000000
O    -2.705000000    -2.851000000     3.831000000
O    -2.730000000    -4.274000000     2.297000000
O    -8.004000000    -4.254000000     4.402000000
H    -7.404000000    -3.509000000     4.380000000
H    -7.553000000    -4.941000000     3.911000000
O    -3.367000000    -0.376000000    -0.119000000
H    -3.101000000     0.282000000    -0.761000000
H    -2.567000000    -0.572000000     0.368000000
O    -5.639000000    -6.513000000     0.499000000
H    -4.947000000    -6.099000000    -0.016000000
H    -5.573000000    -6.103000000     1.362000000
O    -2.874000000    -8.030000000    -0.512000000
H    -2.806000000    -8.599000000     0.255000000
H    -2.916000000    -7.145000000    -0.149000000
O     0.742000000    -8.193000000     4.960000000
H    -0.204000000    -8.330000000     4.898000000
H     0.878000000    -7.307000000     4.622000000
O    -6.019000000    -2.626000000     3.375000000
H    -5.398000000    -2.283000000     4.017000000
H    -5.697000000    -3.505000000     3.175000000
O    -6.295000000    -1.161000000     0.793000000
H    -5.618000000    -0.539000000     1.060000000
H    -6.297000000    -1.824000000     1.483000000
O    -4.227000000    -2.056000000     6.019000000
H    -3.461000000    -2.250000000     5.479000000
H    -4.177000000    -2.682000000     6.741000000
O    -2.149000000    -5.190000000     5.463000000
H    -2.608000000    -4.583000000     4.883000000
H    -2.209000000    -4.786000000     6.329000000
O    -2.021000000    -6.813000000     8.429000000
H    -1.334000000    -7.458000000     8.265000000
H    -2.071000000    -6.305000000     7.620000000
O    -3.296000000    -5.327000000     0.093000000
H    -2.883000000    -5.099000000     0.926000000
H    -3.608000000    -4.492000000    -0.256000000
O    -2.420000000    -9.093000000     2.379000000
H    -2.260000000    -8.261000000     2.826000000
H    -1.546000000    -9.431000000     2.184000000
O    -6.336000000    -0.422000000     7.187000000
H    -5.730000000    -1.038000000     6.777000000
H    -6.798000000    -0.016000000     6.454000000
O    -5.043000000    -5.169000000     3.203000000
H    -4.255000000    -4.933000000     2.713000000
H    -4.830000000    -6.009000000     3.609000000
O    -5.178000000    -8.478000000     3.146000000
H    -4.408000000    -8.732000000     2.637000000
H    -5.918000000    -8.841000000     2.659000000
O    -5.899000000    -4.083000000    -2.419000000
H    -6.709000000    -3.625000000    -2.195000000
H    -5.279000000    -3.820000000    -1.739000000
O    -4.527000000    -2.850000000    -0.410000000
H    -3.750000000    -2.304000000    -0.288000000
H    -5.257000000    -2.291000000    -0.145000000
O    -1.506000000    -6.611000000     3.291000000
H    -1.596000000    -6.378000000     4.215000000
H    -1.717000000    -5.805000000     2.820000000
O    -3.338000000    -3.640000000     8.055000000
H    -4.161000000    -3.590000000     8.541000000
H    -2.758000000    -3.025000000     8.504000000
