215
-1440.71123
C    -4.010000000     3.201000000    -0.165000000
H    -3.890000000     3.552000000    -1.187000000
C    -3.013000000     3.363000000     0.775000000
C    -3.180000000     2.911000000     2.083000000
H    -2.370000000     3.093000000     2.785000000
C    -1.691000000     4.051000000     0.329000000
O    -1.755000000     4.573000000    -0.992000000
H    -1.037000000     3.170000000     0.248000000
O    -1.131000000     4.986000000     1.260000000
C     0.187000000     4.687000000     1.534000000
C     0.514000000     3.856000000     2.652000000
H    -0.212000000     3.630000000     3.428000000
C     1.769000000     3.257000000     2.791000000
O     1.942000000     2.447000000     3.891000000
C     2.807000000     3.545000000     1.958000000
C     4.159000000     2.954000000     2.159000000
H     4.852000000     3.640000000     1.669000000
C     4.378000000     1.533000000     1.637000000
C     4.802000000     1.299000000     0.300000000
H     5.102000000     2.161000000    -0.290000000
H     4.503000000     3.056000000     3.191000000
C     2.470000000     4.337000000     0.814000000
H     3.235000000     4.571000000     0.079000000
C     1.198000000     4.885000000     0.607000000
C     1.029000000     5.636000000    -0.714000000
H     1.983000000     6.068000000    -1.021000000
H     0.267000000     6.392000000    -0.513000000
C     0.528000000     4.707000000    -1.797000000
C     1.509000000     4.257000000    -2.680000000
H     2.528000000     4.597000000    -2.512000000
C    -0.825000000     4.261000000    -1.906000000
C    -1.192000000     3.420000000    -2.915000000
H    -2.181000000     2.971000000    -2.936000000
C    -0.222000000     2.882000000    -3.751000000
O    -0.560000000     1.844000000    -4.611000000
C    -0.261000000     0.487000000    -4.257000000
C    -1.564000000    -0.349000000    -4.340000000
C    -1.418000000    -1.731000000    -4.173000000
H    -0.402000000    -2.115000000    -4.134000000
C    -2.834000000     0.214000000    -4.413000000
H    -3.060000000     1.270000000    -4.539000000
O     0.829000000    -0.044000000    -5.063000000
H     0.144000000     0.436000000    -3.236000000
C     1.124000000     3.289000000    -3.595000000
C     2.161000000     2.558000000    -4.495000000
H     3.033000000     3.201000000    -4.623000000
H     1.767000000     2.560000000    -5.513000000
C     2.660000000     1.230000000    -3.931000000
C     3.806000000     1.195000000    -3.123000000
H     4.244000000     2.148000000    -2.835000000
C     2.045000000     0.002000000    -4.371000000
C     2.457000000    -1.208000000    -3.746000000
H     2.040000000    -2.182000000    -3.991000000
C     3.526000000    -1.209000000    -2.853000000
O     3.890000000    -2.337000000    -2.222000000
C     3.431000000    -2.658000000    -0.851000000
C     2.829000000    -4.021000000    -0.744000000
C     2.448000000    -4.774000000    -1.874000000
H     2.709000000    -4.272000000    -2.802000000
C     2.574000000    -4.523000000     0.538000000
H     2.724000000    -3.922000000     1.431000000
O     4.544000000    -2.392000000     0.042000000
H     2.598000000    -1.949000000    -0.734000000
C     4.197000000    -0.020000000    -2.573000000
C     5.401000000    -0.044000000    -1.643000000
H     6.096000000     0.710000000    -2.019000000
H     5.875000000    -1.026000000    -1.707000000
C     4.861000000     0.034000000    -0.168000000
C     4.449000000    -1.088000000     0.545000000
C     3.801000000    -0.844000000     1.761000000
H     3.490000000    -1.639000000     2.434000000
C     3.911000000     0.407000000     2.338000000
O     3.306000000     0.541000000     3.594000000
C     1.967000000     0.975000000     3.689000000
H     1.569000000     0.761000000     2.686000000
C     1.197000000     0.068000000     4.691000000
C     0.082000000     0.528000000     5.423000000
H    -0.104000000     1.596000000     5.512000000
C     1.568000000    -1.218000000     4.899000000
H     2.506000000    -1.541000000     4.454000000
C     0.864000000    -2.111000000     5.743000000
O     1.030000000    -3.489000000     5.796000000
C    -0.276000000    -1.650000000     6.491000000
H    -0.798000000    -2.244000000     7.236000000
C    -0.613000000    -0.336000000     6.268000000
O    -1.625000000     0.233000000     7.048000000
C    -2.526000000     1.203000000     6.714000000
C    -3.121000000     1.060000000     5.458000000
H    -2.747000000     0.295000000     4.782000000
C    -3.006000000     2.173000000     7.627000000
H    -2.418000000     2.311000000     8.530000000
C    -3.915000000     3.083000000     7.145000000
H    -4.268000000     3.930000000     7.728000000
C    -4.447000000     2.983000000     5.776000000
H    -5.143000000     3.784000000     5.539000000
C    -3.993000000     2.014000000     4.944000000
O    -4.667000000     1.890000000     3.748000000
C    -4.363000000     2.346000000     2.448000000
C    -5.377000000     2.269000000     1.554000000
H    -6.235000000     1.693000000     1.892000000
C    -5.275000000     2.739000000     0.214000000
O    -6.371000000     2.611000000    -0.621000000
C    -6.373000000     2.393000000    -1.981000000
C    -5.652000000     1.301000000    -2.598000000
H    -5.094000000     0.589000000    -1.995000000
C    -7.249000000     3.102000000    -2.787000000
H    -8.004000000     3.706000000    -2.290000000
C    -7.369000000     2.898000000    -4.159000000
H    -8.042000000     3.450000000    -4.810000000
C    -6.560000000     1.940000000    -4.706000000
H    -6.618000000     1.760000000    -5.776000000
C    -5.820000000     1.024000000    -3.952000000
O    -5.207000000    -0.114000000    -4.487000000
C    -3.938000000    -0.596000000    -4.317000000
C    -3.792000000    -1.911000000    -4.048000000
H    -4.710000000    -2.490000000    -3.999000000
C    -2.531000000    -2.486000000    -3.941000000
O    -2.454000000    -3.822000000    -3.780000000
C    -1.467000000    -4.575000000    -4.266000000
C    -0.635000000    -5.261000000    -3.305000000
H    -1.004000000    -5.255000000    -2.282000000
C    -1.179000000    -4.714000000    -5.609000000
H    -1.797000000    -4.152000000    -6.305000000
C    -0.178000000    -5.560000000    -6.039000000
H     0.011000000    -5.550000000    -7.110000000
C     0.719000000    -6.144000000    -5.091000000
H     1.509000000    -6.839000000    -5.365000000
C     0.501000000    -5.950000000    -3.710000000
O     1.292000000    -6.636000000    -2.778000000
C     1.704000000    -5.974000000    -1.683000000
C     1.512000000    -6.488000000    -0.414000000
H     0.855000000    -7.345000000    -0.295000000
C     2.028000000    -5.790000000     0.666000000
O     1.564000000    -6.113000000     1.925000000
C     2.145000000    -5.588000000     3.131000000
C     3.444000000    -5.953000000     3.527000000
H     4.051000000    -6.451000000     2.775000000
C     3.999000000    -5.469000000     4.693000000
H     4.997000000    -5.784000000     4.985000000
C     3.096000000    -4.662000000     5.450000000
H     3.460000000    -4.320000000     6.416000000
C     1.861000000    -4.291000000     5.020000000
C     1.299000000    -4.856000000     3.921000000
H     0.272000000    -4.705000000     3.598000000
C    -0.470000000    -2.086000000    -0.143000000
H    -0.441000000    -3.065000000    -0.616000000
C     0.030000000    -1.024000000    -0.858000000
H     0.412000000    -1.331000000    -1.829000000
C     0.099000000     0.277000000    -0.282000000
H     0.485000000     1.132000000    -0.873000000
C    -0.321000000     0.423000000     1.033000000
H    -0.287000000     1.396000000     1.516000000
C    -0.781000000    -0.682000000     1.782000000
H    -0.970000000    -0.672000000     2.852000000
C    -0.902000000    -1.958000000     1.170000000
C    -1.703000000    -3.088000000     1.821000000
O    -2.405000000    -2.911000000     2.830000000
O    -1.673000000    -4.176000000     1.355000000
O    -6.775000000    -0.897000000     3.971000000
H    -6.650000000    -0.680000000     4.895000000
H    -5.939000000    -0.679000000     3.559000000
O    -3.652000000    -1.350000000    -0.755000000
H    -4.191000000    -1.036000000    -0.030000000
H    -2.940000000    -0.713000000    -0.818000000
O    -2.877000000    -2.383000000     5.187000000
H    -2.332000000    -2.957000000     5.725000000
H    -2.651000000    -2.613000000     4.286000000
O    -3.782000000    -0.726000000     2.021000000
H    -3.183000000     0.020000000     2.035000000
H    -3.335000000    -1.403000000     2.528000000
O    -4.247000000    -7.402000000     2.778000000
H    -3.684000000    -7.492000000     3.547000000
H    -5.134000000    -7.525000000     3.115000000
O    -6.068000000    -4.404000000     0.091000000
H    -5.823000000    -4.187000000     0.991000000
H    -5.255000000    -4.319000000    -0.406000000
O    -2.361000000    -5.415000000     4.197000000
H    -2.247000000    -4.681000000     3.594000000
H    -2.563000000    -5.005000000     5.038000000
O    -4.455000000    -5.906000000    -3.157000000
H    -4.216000000    -5.471000000    -2.338000000
H    -3.737000000    -6.516000000    -3.322000000
O    -4.195000000    -1.615000000     8.032000000
H    -3.827000000    -1.223000000     8.824000000
H    -3.433000000    -1.813000000     7.487000000
O    -6.586000000    -1.796000000    -1.824000000
H    -6.704000000    -1.818000000    -2.774000000
H    -5.700000000    -2.131000000    -1.685000000
O    -4.610000000    -4.431000000     2.590000000
H    -3.878000000    -3.816000000     2.539000000
H    -4.238000000    -5.269000000     2.314000000
O    -0.757000000    -7.595000000     3.322000000
H    -1.346000000    -6.998000000     3.784000000
H    -0.747000000    -7.270000000     2.421000000
O    -5.637000000    -6.212000000     6.150000000
H    -4.948000000    -6.236000000     6.814000000
H    -5.596000000    -5.325000000     5.793000000
O    -5.164000000    -8.036000000    -0.173000000
H    -4.528000000    -7.553000000     0.354000000
H    -5.960000000    -8.041000000     0.359000000
O    -1.692000000    -8.103000000    -1.176000000
H    -2.265000000    -8.822000000    -0.911000000
H    -1.809000000    -7.440000000    -0.496000000
O    -3.465000000    -4.227000000    -0.737000000
H    -3.528000000    -3.307000000    -0.996000000
H    -2.846000000    -4.228000000    -0.007000000
O    -2.253000000    -6.727000000     1.158000000
H    -2.964000000    -6.859000000     1.785000000
H    -1.993000000    -5.814000000     1.280000000
O    -5.499000000    -3.654000000     5.083000000
H    -4.908000000    -3.021000000     5.491000000
H    -5.259000000    -3.642000000     4.157000000
O    -2.153000000    -4.507000000     6.853000000
H    -1.609000000    -5.216000000     6.509000000
H    -1.652000000    -4.154000000     7.588000000
