215
-1453.18450
C    -4.023000000     2.799000000    -0.539000000
H    -3.827000000     3.064000000    -1.575000000
C    -3.047000000     3.096000000     0.432000000
C    -3.362000000     2.829000000     1.761000000
H    -2.640000000     3.226000000     2.470000000
C    -1.667000000     3.617000000     0.114000000
O    -1.673000000     4.450000000    -1.035000000
H    -1.009000000     2.740000000     0.031000000
O    -1.134000000     4.332000000     1.196000000
C     0.193000000     4.183000000     1.550000000
C     0.398000000     3.627000000     2.760000000
H    -0.407000000     3.257000000     3.390000000
C     1.691000000     3.228000000     3.063000000
O     1.859000000     2.438000000     4.151000000
C     2.747000000     3.565000000     2.175000000
C     4.095000000     2.972000000     2.467000000
H     4.825000000     3.675000000     2.061000000
C     4.222000000     1.593000000     1.845000000
C     4.746000000     1.387000000     0.580000000
H     5.078000000     2.271000000     0.042000000
H     4.339000000     2.851000000     3.524000000
C     2.524000000     4.285000000     1.052000000
H     3.367000000     4.465000000     0.390000000
C     1.228000000     4.607000000     0.689000000
C     1.094000000     5.316000000    -0.708000000
H     2.122000000     5.639000000    -0.889000000
H     0.530000000     6.250000000    -0.679000000
C     0.606000000     4.466000000    -1.844000000
C     1.537000000     3.953000000    -2.752000000
H     2.600000000     4.029000000    -2.538000000
C    -0.707000000     4.113000000    -1.972000000
C    -1.095000000     3.369000000    -3.095000000
H    -2.160000000     3.277000000    -3.293000000
C    -0.152000000     2.803000000    -3.983000000
O    -0.565000000     1.795000000    -4.805000000
C    -0.251000000     0.352000000    -4.492000000
C    -1.450000000    -0.513000000    -4.860000000
C    -1.305000000    -1.862000000    -4.730000000
H    -0.368000000    -2.341000000    -4.456000000
C    -2.716000000     0.012000000    -5.074000000
H    -2.898000000     1.081000000    -5.147000000
O     0.967000000    -0.154000000    -5.051000000
H    -0.175000000     0.265000000    -3.398000000
C     1.223000000     3.120000000    -3.793000000
C     2.325000000     2.419000000    -4.533000000
H     3.178000000     3.100000000    -4.519000000
H     2.128000000     2.288000000    -5.599000000
C     2.835000000     1.083000000    -3.952000000
C     3.912000000     1.016000000    -3.097000000
H     4.563000000     1.844000000    -2.829000000
C     2.135000000    -0.104000000    -4.345000000
C     2.549000000    -1.360000000    -3.749000000
H     1.885000000    -2.207000000    -3.900000000
C     3.548000000    -1.337000000    -2.732000000
O     3.703000000    -2.470000000    -1.990000000
C     3.277000000    -2.527000000    -0.594000000
C     2.513000000    -3.823000000    -0.270000000
C     1.960000000    -4.628000000    -1.291000000
H     2.213000000    -4.416000000    -2.326000000
C     2.167000000    -4.176000000     1.053000000
H     2.449000000    -3.565000000     1.906000000
O     4.389000000    -2.247000000     0.319000000
H     2.601000000    -1.671000000    -0.454000000
C     4.235000000    -0.193000000    -2.512000000
C     5.311000000    -0.103000000    -1.391000000
H     6.081000000     0.640000000    -1.608000000
H     5.960000000    -0.976000000    -1.485000000
C     4.776000000     0.087000000    -0.042000000
C     4.466000000    -1.012000000     0.756000000
C     3.986000000    -0.783000000     2.077000000
H     3.702000000    -1.644000000     2.677000000
C     3.899000000     0.508000000     2.642000000
O     3.326000000     0.627000000     3.899000000
C     1.972000000     0.991000000     3.904000000
H     1.584000000     0.720000000     2.911000000
C     1.086000000     0.199000000     4.896000000
C    -0.071000000     0.797000000     5.405000000
H    -0.369000000     1.806000000     5.133000000
C     1.451000000    -1.050000000     5.354000000
H     2.397000000    -1.485000000     5.040000000
C     0.717000000    -1.679000000     6.305000000
O     0.933000000    -3.059000000     6.687000000
C    -0.493000000    -1.118000000     6.782000000
H    -1.061000000    -1.639000000     7.549000000
C    -0.871000000     0.175000000     6.362000000
O    -1.973000000     0.774000000     6.866000000
C    -2.689000000     1.820000000     6.266000000
C    -3.608000000     1.485000000     5.264000000
H    -3.668000000     0.436000000     4.987000000
C    -2.555000000     3.207000000     6.615000000
H    -1.942000000     3.556000000     7.443000000
C    -3.358000000     4.198000000     6.036000000
H    -3.199000000     5.223000000     6.361000000
C    -4.243000000     3.896000000     5.004000000
H    -4.784000000     4.693000000     4.500000000
C    -4.303000000     2.494000000     4.567000000
O    -5.041000000     2.108000000     3.458000000
C    -4.509000000     2.190000000     2.186000000
C    -5.428000000     1.787000000     1.181000000
H    -6.346000000     1.316000000     1.522000000
C    -5.156000000     2.049000000    -0.166000000
O    -6.039000000     1.604000000    -1.014000000
C    -6.038000000     1.714000000    -2.403000000
C    -5.439000000     0.618000000    -3.132000000
H    -5.027000000    -0.272000000    -2.663000000
C    -6.721000000     2.716000000    -3.001000000
H    -7.224000000     3.480000000    -2.414000000
C    -6.688000000     2.903000000    -4.388000000
H    -7.361000000     3.501000000    -4.998000000
C    -6.069000000     1.920000000    -5.146000000
H    -6.072000000     1.980000000    -6.231000000
C    -5.517000000     0.761000000    -4.531000000
O    -5.066000000    -0.266000000    -5.279000000
C    -3.804000000    -0.820000000    -5.263000000
C    -3.653000000    -2.221000000    -5.303000000
H    -4.520000000    -2.866000000    -5.424000000
C    -2.406000000    -2.701000000    -4.988000000
O    -2.224000000    -4.062000000    -4.884000000
C    -1.087000000    -4.793000000    -4.658000000
C    -0.803000000    -5.244000000    -3.386000000
H    -1.439000000    -4.972000000    -2.547000000
C    -0.204000000    -4.997000000    -5.715000000
H    -0.454000000    -4.672000000    -6.722000000
C     0.911000000    -5.797000000    -5.530000000
H     1.532000000    -6.038000000    -6.389000000
C     1.131000000    -6.421000000    -4.304000000
H     1.947000000    -7.127000000    -4.170000000
C     0.294000000    -6.117000000    -3.209000000
O     0.636000000    -6.541000000    -1.943000000
C     1.127000000    -5.712000000    -0.977000000
C     0.859000000    -6.056000000     0.358000000
H     0.214000000    -6.894000000     0.610000000
C     1.313000000    -5.219000000     1.388000000
O     0.822000000    -5.538000000     2.619000000
C     1.437000000    -5.235000000     3.799000000
C     2.660000000    -5.789000000     4.066000000
H     3.149000000    -6.474000000     3.379000000
C     3.347000000    -5.361000000     5.217000000
H     4.324000000    -5.799000000     5.407000000
C     2.767000000    -4.500000000     6.149000000
H     3.179000000    -4.347000000     7.143000000
C     1.513000000    -3.964000000     5.828000000
C     0.855000000    -4.324000000     4.639000000
H    -0.126000000    -3.912000000     4.416000000
C    -0.628000000    -2.113000000     0.405000000
H    -0.339000000    -2.999000000    -0.154000000
C     0.047000000    -0.884000000    -0.017000000
H     0.600000000    -0.881000000    -0.953000000
C    -0.164000000     0.227000000     0.734000000
H     0.277000000     1.154000000     0.529000000
C    -0.892000000     0.174000000     1.909000000
H    -1.065000000     1.088000000     2.471000000
C    -1.491000000    -1.007000000     2.274000000
H    -2.022000000    -1.092000000     3.218000000
C    -1.395000000    -2.186000000     1.540000000
C    -2.232000000    -3.373000000     1.950000000
O    -2.734000000    -3.500000000     3.053000000
O    -2.433000000    -4.277000000     1.106000000
O    -3.977000000    -0.943000000     0.235000000
H    -4.820000000    -0.746000000     0.643000000
H    -3.401000000    -0.233000000     0.521000000
O    -3.031000000    -2.802000000     5.573000000
H    -2.601000000    -3.506000000     6.058000000
H    -2.970000000    -3.071000000     4.656000000
O    -7.858000000    -4.113000000     4.201000000
H    -7.989000000    -3.583000000     4.987000000
H    -7.051000000    -3.773000000     3.815000000
O    -5.945000000    -1.358000000     2.730000000
H    -5.080000000    -1.766000000     2.765000000
H    -5.986000000    -0.814000000     3.516000000
O    -3.593000000    -8.466000000     5.628000000
H    -3.199000000    -7.623000000     5.404000000
H    -3.025000000    -8.821000000     6.312000000
O    -7.091000000    -3.254000000     1.023000000
H    -6.510000000    -2.987000000     1.735000000
H    -6.783000000    -2.761000000     0.263000000
O    -2.540000000    -5.985000000     4.230000000
H    -2.658000000    -5.127000000     3.821000000
H    -2.057000000    -5.802000000     5.036000000
O    -5.367000000    -5.366000000    -2.927000000
H    -4.810000000    -4.617000000    -2.718000000
H    -4.944000000    -6.107000000    -2.494000000
O    -6.077000000    -0.547000000     5.552000000
H    -5.623000000    -1.112000000     6.178000000
H    -6.339000000     0.217000000     6.066000000
O    -4.330000000    -1.448000000     7.554000000
H    -4.016000000    -1.570000000     8.449000000
H    -3.729000000    -1.963000000     7.016000000
O    -6.543000000    -2.171000000    -1.448000000
H    -6.907000000    -2.497000000    -2.272000000
H    -5.595000000    -2.226000000    -1.567000000
O    -5.288000000    -4.525000000     2.853000000
H    -4.376000000    -4.285000000     3.021000000
H    -5.315000000    -4.720000000     1.916000000
O    -1.438000000    -8.580000000     3.414000000
H    -1.749000000    -7.678000000     3.344000000
H    -1.619000000    -8.826000000     4.322000000
O    -4.232000000    -7.567000000    -1.792000000
H    -4.581000000    -7.527000000    -0.901000000
H    -3.283000000    -7.626000000    -1.674000000
O    -5.021000000    -7.544000000     0.739000000
H    -4.815000000    -8.339000000     1.230000000
H    -5.966000000    -7.588000000     0.597000000
O    -3.783000000    -3.115000000    -1.476000000
H    -3.497000000    -2.257000000    -1.162000000
H    -3.400000000    -3.737000000    -0.857000000
O    -2.176000000    -6.617000000     0.013000000
H    -3.028000000    -6.802000000     0.409000000
H    -1.874000000    -5.824000000     0.455000000
O    -5.618000000    -5.180000000     5.865000000
H    -4.713000000    -4.878000000     5.943000000
H    -5.767000000    -5.245000000     4.921000000
O    -1.469000000    -5.135000000     6.556000000
H    -1.069000000    -5.998000000     6.459000000
H    -1.087000000    -4.783000000     7.360000000
