215
-1472.58714
C    -4.119000000     2.540000000    -0.737000000
H    -3.837000000     2.648000000    -1.782000000
C    -3.316000000     3.009000000     0.281000000
C    -3.799000000     2.794000000     1.564000000
H    -3.243000000     3.253000000     2.378000000
C    -1.965000000     3.630000000     0.027000000
O    -1.997000000     4.353000000    -1.249000000
H    -1.274000000     2.775000000    -0.002000000
O    -1.596000000     4.530000000     1.108000000
C    -0.299000000     4.300000000     1.513000000
C    -0.090000000     3.661000000     2.763000000
H    -0.955000000     3.445000000     3.385000000
C     1.149000000     3.310000000     3.223000000
O     1.280000000     2.541000000     4.311000000
C     2.269000000     3.536000000     2.387000000
C     3.716000000     3.167000000     2.728000000
H     4.355000000     3.940000000     2.296000000
C     4.052000000     1.825000000     2.024000000
C     4.813000000     1.695000000     0.829000000
H     5.022000000     2.632000000     0.318000000
H     3.865000000     3.169000000     3.810000000
C     2.038000000     4.230000000     1.157000000
H     2.853000000     4.535000000     0.504000000
C     0.816000000     4.616000000     0.725000000
C     0.635000000     5.377000000    -0.540000000
H     1.546000000     5.950000000    -0.724000000
H    -0.051000000     6.226000000    -0.513000000
C     0.335000000     4.478000000    -1.733000000
C     1.324000000     4.040000000    -2.532000000
H     2.353000000     4.390000000    -2.513000000
C    -0.987000000     4.051000000    -2.062000000
C    -1.237000000     3.141000000    -3.084000000
H    -2.272000000     2.812000000    -3.129000000
C    -0.173000000     2.630000000    -3.815000000
O    -0.414000000     1.699000000    -4.820000000
C    -0.115000000     0.348000000    -4.454000000
C    -1.255000000    -0.618000000    -4.709000000
C    -1.043000000    -1.995000000    -4.444000000
H    -0.061000000    -2.379000000    -4.179000000
C    -2.494000000    -0.160000000    -5.106000000
H    -2.624000000     0.880000000    -5.397000000
O     1.203000000    -0.127000000    -4.911000000
H     0.066000000     0.356000000    -3.370000000
C     1.084000000     3.155000000    -3.584000000
C     2.267000000     2.630000000    -4.414000000
H     3.047000000     3.379000000    -4.569000000
H     1.953000000     2.491000000    -5.450000000
C     2.854000000     1.295000000    -3.832000000
C     3.815000000     1.328000000    -2.786000000
H     4.060000000     2.294000000    -2.352000000
C     2.261000000     0.049000000    -4.107000000
C     2.831000000    -1.140000000    -3.560000000
H     2.371000000    -2.095000000    -3.799000000
C     3.911000000    -1.074000000    -2.659000000
O     4.261000000    -2.187000000    -1.966000000
C     3.656000000    -2.203000000    -0.615000000
C     3.114000000    -3.569000000    -0.246000000
C     2.669000000    -4.421000000    -1.292000000
H     2.741000000    -4.121000000    -2.335000000
C     2.978000000    -4.031000000     1.077000000
H     3.286000000    -3.434000000     1.932000000
O     4.660000000    -1.886000000     0.306000000
H     2.808000000    -1.503000000    -0.613000000
C     4.375000000     0.197000000    -2.230000000
C     5.530000000     0.463000000    -1.221000000
H     6.007000000     1.411000000    -1.478000000
H     6.266000000    -0.343000000    -1.255000000
C     4.962000000     0.468000000     0.182000000
C     4.555000000    -0.655000000     0.909000000
C     3.828000000    -0.539000000     2.062000000
H     3.556000000    -1.461000000     2.570000000
C     3.680000000     0.674000000     2.720000000
O     3.015000000     0.865000000     3.912000000
C     1.577000000     1.122000000     3.925000000
H     1.182000000     0.886000000     2.926000000
C     0.824000000     0.211000000     4.869000000
C    -0.516000000     0.506000000     5.143000000
H    -1.035000000     1.363000000     4.720000000
C     1.350000000    -0.991000000     5.313000000
H     2.335000000    -1.285000000     4.962000000
C     0.573000000    -1.810000000     6.128000000
O     1.189000000    -2.977000000     6.599000000
C    -0.771000000    -1.491000000     6.360000000
H    -1.424000000    -2.125000000     6.954000000
C    -1.303000000    -0.341000000     5.881000000
O    -2.696000000    -0.073000000     6.112000000
C    -3.428000000     1.015000000     5.644000000
C    -4.155000000     0.972000000     4.521000000
H    -4.264000000     0.110000000     3.868000000
C    -3.364000000     2.131000000     6.457000000
H    -2.818000000     2.087000000     7.396000000
C    -4.154000000     3.248000000     6.218000000
H    -4.184000000     4.160000000     6.807000000
C    -4.963000000     3.254000000     5.080000000
H    -5.431000000     4.169000000     4.726000000
C    -4.929000000     2.121000000     4.256000000
O    -5.674000000     2.113000000     3.100000000
C    -5.050000000     2.156000000     1.821000000
C    -5.859000000     1.819000000     0.768000000
H    -6.847000000     1.422000000     0.986000000
C    -5.399000000     1.973000000    -0.497000000
O    -6.336000000     1.685000000    -1.423000000
C    -6.073000000     1.716000000    -2.794000000
C    -5.677000000     0.514000000    -3.454000000
H    -5.468000000    -0.403000000    -2.910000000
C    -6.364000000     2.835000000    -3.535000000
H    -6.659000000     3.747000000    -3.023000000
C    -6.043000000     2.873000000    -4.870000000
H    -6.213000000     3.714000000    -5.537000000
C    -5.507000000     1.749000000    -5.543000000
H    -5.316000000     1.825000000    -6.610000000
C    -5.382000000     0.542000000    -4.832000000
O    -4.813000000    -0.507000000    -5.520000000
C    -3.603000000    -0.988000000    -5.125000000
C    -3.433000000    -2.327000000    -4.740000000
H    -4.272000000    -3.017000000    -4.780000000
C    -2.121000000    -2.856000000    -4.443000000
O    -2.129000000    -4.129000000    -3.975000000
C    -0.998000000    -4.921000000    -4.054000000
C    -0.163000000    -5.144000000    -2.928000000
H    -0.515000000    -4.710000000    -1.996000000
C    -0.730000000    -5.411000000    -5.299000000
H    -1.321000000    -5.042000000    -6.133000000
C     0.283000000    -6.340000000    -5.367000000
H     0.558000000    -6.677000000    -6.363000000
C     1.087000000    -6.658000000    -4.264000000
H     1.866000000    -7.400000000    -4.416000000
C     0.877000000    -6.051000000    -3.063000000
O     1.608000000    -6.473000000    -1.986000000
C     2.086000000    -5.630000000    -0.990000000
C     1.847000000    -5.984000000     0.318000000
H     1.226000000    -6.857000000     0.504000000
C     2.255000000    -5.186000000     1.349000000
O     1.922000000    -5.540000000     2.612000000
C     2.500000000    -5.046000000     3.804000000
C     3.801000000    -5.345000000     4.274000000
H     4.475000000    -6.054000000     3.801000000
C     4.269000000    -4.775000000     5.471000000
H     5.316000000    -4.868000000     5.747000000
C     3.343000000    -4.086000000     6.279000000
H     3.707000000    -3.646000000     7.204000000
C     2.057000000    -3.812000000     5.838000000
C     1.667000000    -4.276000000     4.605000000
H     0.681000000    -3.992000000     4.244000000
C    -0.379000000    -2.200000000     0.379000000
H    -0.146000000    -3.148000000    -0.101000000
C     0.159000000    -0.996000000    -0.025000000
H     0.816000000    -1.069000000    -0.888000000
C    -0.162000000     0.236000000     0.615000000
H     0.302000000     1.171000000     0.285000000
C    -0.926000000     0.131000000     1.754000000
H    -1.160000000     1.029000000     2.320000000
C    -1.333000000    -1.113000000     2.226000000
H    -2.001000000    -1.160000000     3.083000000
C    -1.056000000    -2.293000000     1.621000000
C    -1.628000000    -3.616000000     2.231000000
O    -2.134000000    -3.613000000     3.337000000
O    -1.655000000    -4.673000000     1.571000000
O    -2.431000000    -5.991000000    -0.719000000
H    -2.550000000    -6.891000000    -0.416000000
H    -2.033000000    -5.539000000     0.025000000
O    -4.145000000    -1.767000000     0.760000000
H    -3.951000000    -2.378000000     0.049000000
H    -3.461000000    -1.100000000     0.696000000
O    -4.132000000    -2.577000000     4.308000000
H    -3.824000000    -2.147000000     5.106000000
H    -3.346000000    -2.967000000     3.927000000
O    -6.134000000    -2.592000000     2.602000000
H    -5.517000000    -2.537000000     3.331000000
H    -5.640000000    -2.277000000     1.845000000
O    -1.956000000    -8.061000000     4.791000000
H    -1.372000000    -7.968000000     5.544000000
H    -2.833000000    -8.096000000     5.171000000
O    -2.273000000    -4.947000000     5.597000000
H    -2.216000000    -4.362000000     4.842000000
H    -1.395000000    -5.317000000     5.681000000
O    -4.860000000    -7.122000000    -2.439000000
H    -5.650000000    -6.655000000    -2.169000000
H    -4.169000000    -6.459000000    -2.414000000
O    -8.134000000    -4.097000000     3.095000000
H    -7.445000000    -3.491000000     2.821000000
H    -7.704000000    -4.951000000     3.122000000
O    -3.963000000    -5.995000000     2.111000000
H    -3.181000000    -5.489000000     1.893000000
H    -4.256000000    -5.634000000     2.948000000
O     1.216000000    -8.685000000     3.212000000
H     0.490000000    -8.199000000     2.821000000
H     1.800000000    -8.008000000     3.555000000
O    -6.590000000    -3.015000000    -2.728000000
H    -6.327000000    -2.990000000    -1.808000000
H    -6.403000000    -3.912000000    -3.005000000
O    -0.373000000    -6.976000000     7.003000000
H     0.519000000    -7.264000000     7.193000000
H    -0.697000000    -6.635000000     7.836000000
O    -5.162000000    -5.254000000     4.669000000
H    -4.510000000    -5.689000000     5.217000000
H    -4.750000000    -4.427000000     4.416000000
O    -4.023000000    -8.383000000     0.427000000
H    -4.094000000    -7.612000000     0.990000000
H    -4.819000000    -8.883000000     0.605000000
O    -1.676000000    -9.569000000     1.103000000
H    -2.495000000    -9.213000000     0.757000000
H    -1.201000000    -8.804000000     1.429000000
O    -3.170000000    -3.412000000    -1.529000000
H    -2.629000000    -3.316000000    -2.313000000
H    -3.081000000    -4.334000000    -1.288000000
O    -6.629000000    -4.019000000     0.004000000
H    -6.595000000    -3.120000000     0.329000000
H    -6.494000000    -4.561000000     0.781000000
O    -1.016000000    -7.246000000     2.292000000
H    -1.398000000    -7.368000000     3.161000000
H    -0.921000000    -6.297000000     2.204000000
O    -3.440000000    -4.717000000     7.883000000
H    -3.098000000    -4.619000000     6.995000000
H    -2.764000000    -5.211000000     8.347000000
