215
-1446.50619
C     4.508000000     2.019000000    -2.980000000
H     4.871000000     1.154000000    -3.528000000
C     4.127000000     1.889000000    -1.626000000
C     3.795000000     3.036000000    -0.837000000
H     3.476000000     3.015000000     0.202000000
C     4.160000000     0.534000000    -0.943000000
O     4.821000000    -0.530000000    -1.728000000
H     3.107000000     0.268000000    -0.773000000
O     4.785000000     0.642000000     0.477000000
C     4.263000000    -0.031000000     1.524000000
C     3.623000000     0.742000000     2.493000000
H     3.691000000     1.819000000     2.365000000
C     2.935000000     0.168000000     3.559000000
O     2.080000000     0.929000000     4.296000000
C     2.912000000    -1.271000000     3.650000000
C     2.130000000    -2.048000000     4.695000000
H     2.522000000    -3.058000000     4.830000000
C     0.643000000    -2.166000000     4.289000000
C     0.300000000    -3.372000000     3.710000000
H     1.076000000    -4.119000000     3.562000000
H     2.286000000    -1.480000000     5.615000000
C     3.573000000    -2.011000000     2.680000000
H     3.466000000    -3.091000000     2.740000000
C     4.251000000    -1.449000000     1.624000000
C     4.972000000    -2.280000000     0.589000000
H     5.297000000    -3.206000000     1.068000000
H     5.943000000    -1.885000000     0.282000000
C     4.059000000    -2.539000000    -0.681000000
C     3.232000000    -3.635000000    -0.771000000
H     3.156000000    -4.332000000     0.060000000
C     4.135000000    -1.709000000    -1.833000000
C     3.312000000    -1.847000000    -2.954000000
H     3.332000000    -1.179000000    -3.811000000
C     2.325000000    -2.920000000    -2.941000000
O     1.337000000    -2.928000000    -3.918000000
C     0.027000000    -2.604000000    -3.423000000
C    -0.527000000    -1.523000000    -4.325000000
C    -1.929000000    -1.277000000    -4.208000000
H    -2.597000000    -1.864000000    -3.581000000
C     0.279000000    -0.633000000    -5.086000000
H     1.358000000    -0.763000000    -5.135000000
O    -0.910000000    -3.776000000    -3.258000000
H     0.066000000    -2.116000000    -2.438000000
C     2.344000000    -3.821000000    -1.848000000
C     1.338000000    -5.026000000    -1.902000000
H     1.853000000    -5.903000000    -1.504000000
H     1.049000000    -5.323000000    -2.912000000
C     0.070000000    -4.705000000    -1.258000000
C    -0.048000000    -4.997000000     0.150000000
H     0.765000000    -5.462000000     0.702000000
C    -1.000000000    -4.199000000    -1.939000000
C    -2.217000000    -4.003000000    -1.268000000
H    -3.130000000    -3.671000000    -1.755000000
C    -2.271000000    -4.187000000     0.117000000
O    -3.345000000    -3.797000000     0.735000000
C    -3.375000000    -2.620000000     1.557000000
C    -4.522000000    -1.710000000     1.266000000
C    -5.249000000    -1.719000000     0.080000000
H    -5.032000000    -2.499000000    -0.645000000
C    -4.795000000    -0.696000000     2.165000000
H    -4.159000000    -0.560000000     3.036000000
O    -3.265000000    -2.779000000     3.027000000
H    -2.535000000    -2.020000000     1.178000000
C    -1.157000000    -4.632000000     0.861000000
C    -1.163000000    -4.851000000     2.351000000
H    -0.455000000    -5.647000000     2.591000000
H    -2.092000000    -5.301000000     2.709000000
C    -0.985000000    -3.554000000     3.203000000
C    -1.940000000    -2.552000000     3.363000000
C    -1.620000000    -1.348000000     4.038000000
H    -2.311000000    -0.516000000     4.152000000
C    -0.260000000    -1.180000000     4.403000000
O     0.056000000     0.086000000     4.851000000
C     0.743000000     0.952000000     3.950000000
H     0.605000000     0.638000000     2.905000000
C     0.163000000     2.310000000     3.975000000
C     0.942000000     3.437000000     3.557000000
H     1.952000000     3.216000000     3.224000000
C    -1.144000000     2.497000000     4.476000000
H    -1.752000000     1.637000000     4.745000000
C    -1.709000000     3.798000000     4.363000000
O    -2.993000000     4.046000000     4.807000000
C    -0.906000000     4.879000000     4.133000000
H    -1.277000000     5.898000000     4.199000000
C     0.409000000     4.734000000     3.657000000
O     1.094000000     5.897000000     3.395000000
C     2.295000000     5.828000000     2.714000000
C     2.300000000     5.459000000     1.354000000
H     1.411000000     5.204000000     0.783000000
C     3.516000000     6.081000000     3.402000000
H     3.536000000     6.316000000     4.463000000
C     4.728000000     6.075000000     2.656000000
H     5.609000000     6.405000000     3.200000000
C     4.729000000     5.850000000     1.301000000
H     5.591000000     5.974000000     0.650000000
C     3.552000000     5.517000000     0.630000000
O     3.546000000     5.417000000    -0.765000000
C     3.863000000     4.302000000    -1.462000000
C     4.205000000     4.362000000    -2.761000000
H     4.172000000     5.353000000    -3.206000000
C     4.468000000     3.300000000    -3.531000000
O     4.501000000     3.431000000    -4.926000000
C     3.844000000     2.445000000    -5.712000000
C     2.457000000     2.359000000    -5.747000000
H     1.829000000     3.016000000    -5.150000000
C     4.639000000     1.529000000    -6.460000000
H     5.725000000     1.541000000    -6.424000000
C     3.976000000     0.555000000    -7.202000000
H     4.606000000    -0.067000000    -7.833000000
C     2.582000000     0.455000000    -7.245000000
H     2.191000000    -0.324000000    -7.894000000
C     1.784000000     1.360000000    -6.480000000
O     0.400000000     1.348000000    -6.440000000
C    -0.352000000     0.387000000    -5.803000000
C    -1.725000000     0.605000000    -5.715000000
H    -2.202000000     1.388000000    -6.299000000
C    -2.450000000    -0.234000000    -4.902000000
O    -3.761000000     0.127000000    -4.714000000
C    -4.821000000    -0.645000000    -4.255000000
C    -5.417000000    -0.285000000    -3.060000000
H    -5.250000000     0.686000000    -2.601000000
C    -5.037000000    -1.855000000    -4.770000000
H    -4.426000000    -2.178000000    -5.610000000
C    -6.004000000    -2.718000000    -4.180000000
H    -6.172000000    -3.698000000    -4.620000000
C    -6.782000000    -2.219000000    -3.096000000
H    -7.588000000    -2.802000000    -2.659000000
C    -6.419000000    -1.039000000    -2.551000000
O    -6.987000000    -0.759000000    -1.290000000
C    -6.181000000    -0.720000000    -0.259000000
C    -6.452000000     0.205000000     0.719000000
H    -7.266000000     0.896000000     0.515000000
C    -5.722000000     0.254000000     1.903000000
O    -6.130000000     1.215000000     2.820000000
C    -5.520000000     1.710000000     3.892000000
C    -5.883000000     1.193000000     5.086000000
H    -6.688000000     0.462000000     5.086000000
C    -5.329000000     1.739000000     6.257000000
H    -5.546000000     1.296000000     7.225000000
C    -4.299000000     2.643000000     6.119000000
H    -3.872000000     3.087000000     7.014000000
C    -3.936000000     3.099000000     4.891000000
C    -4.560000000     2.673000000     3.742000000
H    -4.216000000     3.036000000     2.777000000
C    -1.979000000     0.659000000    -0.783000000
H    -2.980000000     0.362000000    -1.085000000
C    -1.009000000    -0.280000000    -0.595000000
H    -1.293000000    -1.324000000    -0.702000000
C     0.285000000     0.066000000    -0.253000000
H     0.934000000    -0.793000000    -0.063000000
C     0.623000000     1.396000000     0.011000000
H     1.590000000     1.690000000     0.411000000
C    -0.392000000     2.317000000    -0.105000000
H    -0.118000000     3.340000000     0.140000000
C    -1.691000000     1.983000000    -0.514000000
C    -2.723000000     3.088000000    -0.876000000
O    -2.429000000     4.236000000    -0.648000000
O    -3.836000000     2.722000000    -1.120000000
O     1.125000000     7.007000000    -1.715000000
H     0.396000000     7.516000000    -2.069000000
H     0.880000000     6.095000000    -1.874000000
O    -6.030000000     5.470000000     1.630000000
H    -5.096000000     5.592000000     1.457000000
H    -6.210000000     4.573000000     1.349000000
O    -2.939000000     5.754000000     1.413000000
H    -2.796000000     5.270000000     0.600000000
H    -2.722000000     5.129000000     2.105000000
O    -1.054000000     7.669000000     2.180000000
H    -1.183000000     8.444000000     1.632000000
H    -1.638000000     7.010000000     1.805000000
O     0.068000000     2.171000000    -2.982000000
H    -0.099000000     1.449000000    -3.588000000
H     0.156000000     1.751000000    -2.126000000
O    -8.254000000     5.553000000    -3.368000000
H    -7.824000000     5.820000000    -2.556000000
H    -9.177000000     5.463000000    -3.133000000
O    -7.332000000     6.393000000    -1.045000000
H    -6.516000000     6.023000000    -0.710000000
H    -7.560000000     7.078000000    -0.417000000
O    -6.216000000     3.209000000    -0.021000000
H    -5.323000000     2.942000000    -0.238000000
H    -6.703000000     3.101000000    -0.838000000
O    -3.504000000     7.014000000    -4.113000000
H    -2.606000000     7.076000000    -4.437000000
H    -4.048000000     7.220000000    -4.874000000
O    -4.659000000     3.318000000    -3.469000000
H    -4.411000000     3.161000000    -2.558000000
H    -3.875000000     3.099000000    -3.972000000
O    -5.953000000     4.250000000    -5.801000000
H    -5.445000000     4.051000000    -5.015000000
H    -5.648000000     5.116000000    -6.071000000
O    -8.554000000     3.155000000     1.420000000
H    -7.799000000     3.291000000     0.847000000
H    -9.281000000     2.984000000     0.821000000
O    -4.706000000     8.174000000     0.058000000
H    -4.945000000     7.419000000    -0.480000000
H    -3.914000000     7.898000000     0.519000000
O    -4.369000000     6.072000000    -1.483000000
H    -4.534000000     5.958000000    -2.419000000
H    -3.885000000     5.287000000    -1.228000000
O    -2.105000000     4.044000000    -6.624000000
H    -1.634000000     4.846000000    -6.853000000
H    -1.953000000     3.937000000    -5.686000000
O    -1.970000000     3.348000000    -4.028000000
H    -1.217000000     2.793000000    -3.823000000
H    -1.795000000     4.168000000    -3.566000000
O    -8.259000000     0.931000000    -4.414000000
H    -8.269000000     1.485000000    -5.195000000
H    -7.802000000     1.455000000    -3.756000000
O    -1.511000000     5.769000000    -2.640000000
H    -2.254000000     6.373000000    -2.667000000
H    -1.383000000     5.589000000    -1.709000000
O    -7.325000000     2.855000000    -2.884000000
H    -7.780000000     3.658000000    -3.137000000
H    -6.398000000     3.049000000    -3.027000000
