215
-1462.90193
C    -4.753000000     2.427000000    -0.145000000
H    -4.664000000     2.667000000    -1.201000000
C    -3.867000000     2.790000000     0.863000000
C    -4.168000000     2.336000000     2.180000000
H    -3.535000000     2.597000000     3.024000000
C    -2.451000000     3.356000000     0.560000000
O    -2.437000000     4.261000000    -0.526000000
H    -1.821000000     2.506000000     0.259000000
O    -2.025000000     4.093000000     1.798000000
C    -0.647000000     3.930000000     2.133000000
C    -0.377000000     2.993000000     3.108000000
H    -1.169000000     2.555000000     3.709000000
C     0.941000000     2.655000000     3.421000000
O     1.283000000     1.742000000     4.401000000
C     1.936000000     3.419000000     2.856000000
C     3.408000000     3.073000000     3.195000000
H     4.076000000     3.906000000     2.965000000
C     3.885000000     1.818000000     2.425000000
C     4.446000000     2.033000000     1.197000000
H     4.603000000     3.022000000     0.775000000
H     3.382000000     2.885000000     4.270000000
C     1.677000000     4.392000000     1.861000000
H     2.477000000     4.729000000     1.206000000
C     0.321000000     4.642000000     1.406000000
C    -0.064000000     5.622000000     0.254000000
H     0.662000000     6.436000000     0.208000000
H    -1.040000000     6.085000000     0.409000000
C    -0.143000000     4.804000000    -1.041000000
C     1.009000000     4.598000000    -1.828000000
H     1.954000000     4.987000000    -1.456000000
C    -1.311000000     4.194000000    -1.358000000
C    -1.471000000     3.371000000    -2.476000000
H    -2.480000000     3.034000000    -2.698000000
C    -0.361000000     3.268000000    -3.318000000
O    -0.598000000     2.344000000    -4.332000000
C    -0.137000000     1.019000000    -4.052000000
C    -1.096000000    -0.105000000    -4.500000000
C    -0.680000000    -1.438000000    -4.501000000
H     0.316000000    -1.678000000    -4.137000000
C    -2.408000000     0.256000000    -4.732000000
H    -2.696000000     1.290000000    -4.904000000
O     1.141000000     0.913000000    -4.673000000
H     0.029000000     0.856000000    -2.977000000
C     0.849000000     3.891000000    -3.049000000
C     2.003000000     3.609000000    -3.959000000
H     2.745000000     4.403000000    -3.849000000
H     1.730000000     3.670000000    -5.015000000
C     2.645000000     2.279000000    -3.462000000
C     3.541000000     2.323000000    -2.398000000
H     3.676000000     3.290000000    -1.921000000
C     2.189000000     1.025000000    -3.890000000
C     2.874000000    -0.117000000    -3.524000000
H     2.636000000    -1.054000000    -4.021000000
C     3.845000000    -0.072000000    -2.531000000
O     4.524000000    -1.150000000    -2.044000000
C     4.049000000    -1.727000000    -0.825000000
C     3.681000000    -3.196000000    -0.974000000
C     3.514000000    -3.801000000    -2.270000000
H     3.503000000    -3.184000000    -3.164000000
C     3.430000000    -4.005000000     0.146000000
H     3.405000000    -3.455000000     1.084000000
O     5.044000000    -1.469000000     0.125000000
H     3.084000000    -1.259000000    -0.581000000
C     4.199000000     1.191000000    -1.995000000
C     5.295000000     1.274000000    -0.988000000
H     5.822000000     2.230000000    -1.038000000
H     6.096000000     0.597000000    -1.293000000
C     4.845000000     0.952000000     0.433000000
C     4.825000000    -0.356000000     0.922000000
C     4.309000000    -0.560000000     2.182000000
H     4.282000000    -1.527000000     2.679000000
C     3.845000000     0.495000000     2.931000000
O     3.057000000     0.206000000     4.071000000
C     1.625000000     0.441000000     3.933000000
H     1.469000000     0.468000000     2.844000000
C     0.683000000    -0.610000000     4.617000000
C    -0.516000000    -0.266000000     5.358000000
H    -0.789000000     0.777000000     5.495000000
C     0.977000000    -1.989000000     4.414000000
H     1.785000000    -2.246000000     3.734000000
C     0.191000000    -2.980000000     4.982000000
O     0.496000000    -4.300000000     4.848000000
C    -0.984000000    -2.640000000     5.656000000
H    -1.636000000    -3.400000000     6.079000000
C    -1.311000000    -1.287000000     5.829000000
O    -2.473000000    -1.047000000     6.503000000
C    -3.249000000     0.168000000     6.217000000
C    -3.975000000     0.245000000     5.064000000
H    -3.913000000    -0.609000000     4.394000000
C    -3.278000000     1.201000000     7.135000000
H    -2.654000000     1.155000000     8.025000000
C    -4.293000000     2.165000000     7.046000000
H    -4.368000000     2.894000000     7.849000000
C    -5.056000000     2.264000000     5.911000000
H    -5.765000000     3.073000000     5.755000000
C    -4.845000000     1.267000000     4.885000000
O    -5.672000000     1.182000000     3.783000000
C    -5.330000000     1.551000000     2.430000000
C    -6.134000000     1.119000000     1.420000000
H    -7.013000000     0.539000000     1.689000000
C    -5.845000000     1.623000000     0.154000000
O    -6.617000000     1.012000000    -0.831000000
C    -6.471000000     1.186000000    -2.257000000
C    -5.610000000     0.408000000    -3.008000000
H    -5.126000000    -0.350000000    -2.398000000
C    -7.110000000     2.264000000    -2.888000000
H    -7.763000000     2.882000000    -2.277000000
C    -6.887000000     2.514000000    -4.249000000
H    -7.365000000     3.397000000    -4.666000000
C    -5.898000000     1.729000000    -4.936000000
H    -5.567000000     1.963000000    -5.945000000
C    -5.327000000     0.670000000    -4.335000000
O    -4.721000000    -0.303000000    -5.135000000
C    -3.398000000    -0.665000000    -4.954000000
C    -3.008000000    -1.999000000    -4.883000000
H    -3.722000000    -2.810000000    -4.759000000
C    -1.672000000    -2.407000000    -4.629000000
O    -1.310000000    -3.716000000    -4.463000000
C    -0.134000000    -4.220000000    -4.953000000
C     0.756000000    -4.679000000    -4.066000000
H     0.604000000    -4.556000000    -2.996000000
C     0.202000000    -4.143000000    -6.313000000
H    -0.531000000    -3.631000000    -6.931000000
C     1.379000000    -4.732000000    -6.762000000
H     1.755000000    -4.764000000    -7.782000000
C     2.229000000    -5.258000000    -5.838000000
H     3.216000000    -5.602000000    -6.137000000
C     1.962000000    -5.231000000    -4.490000000
O     2.896000000    -5.656000000    -3.647000000
C     3.099000000    -5.122000000    -2.337000000
C     2.876000000    -5.909000000    -1.213000000
H     2.541000000    -6.938000000    -1.316000000
C     2.979000000    -5.327000000     0.041000000
O     2.744000000    -6.074000000     1.129000000
C     2.828000000    -5.606000000     2.428000000
C     3.961000000    -5.915000000     3.163000000
H     4.796000000    -6.409000000     2.674000000
C     3.979000000    -5.475000000     4.508000000
H     4.838000000    -5.790000000     5.096000000
C     2.842000000    -4.986000000     5.119000000
H     2.830000000    -4.887000000     6.202000000
C     1.673000000    -4.852000000     4.305000000
C     1.698000000    -5.044000000     2.925000000
H     0.801000000    -4.927000000     2.323000000
C    -0.416000000    -2.991000000     0.741000000
H    -0.354000000    -4.062000000     0.564000000
C     0.179000000    -2.143000000    -0.162000000
H     0.696000000    -2.618000000    -0.992000000
C    -0.005000000    -0.735000000    -0.033000000
H     0.464000000    -0.068000000    -0.745000000
C    -0.724000000    -0.228000000     1.082000000
H    -0.846000000     0.849000000     1.168000000
C    -1.445000000    -1.088000000     1.888000000
H    -2.090000000    -0.724000000     2.684000000
C    -1.337000000    -2.517000000     1.716000000
C    -2.113000000    -3.512000000     2.580000000
O    -3.118000000    -3.109000000     3.156000000
O    -1.979000000    -4.732000000     2.568000000
O    -2.000000000    -6.819000000    -0.474000000
H    -1.589000000    -6.928000000     0.384000000
H    -2.863000000    -7.221000000    -0.379000000
O    -3.103000000    -0.666000000    -1.170000000
H    -2.163000000    -0.770000000    -1.024000000
H    -3.466000000    -0.519000000    -0.297000000
O    -5.290000000    -8.365000000     3.799000000
H    -6.187000000    -8.236000000     4.110000000
H    -5.094000000    -7.572000000     3.300000000
O    -4.982000000    -2.852000000     4.914000000
H    -4.173000000    -3.024000000     4.432000000
H    -5.166000000    -3.671000000     5.374000000
O    -4.761000000    -1.649000000     1.744000000
H    -4.098000000    -2.176000000     2.190000000
H    -4.757000000    -0.814000000     2.211000000
O    -2.516000000    -4.840000000     7.961000000
H    -2.723000000    -4.777000000     7.028000000
H    -2.646000000    -5.764000000     8.173000000
O    -3.161000000    -8.790000000     5.733000000
H    -4.085000000    -9.012000000     5.620000000
H    -2.810000000    -8.768000000     4.842000000
O    -7.312000000    -5.618000000     1.347000000
H    -6.938000000    -5.396000000     2.199000000
H    -6.922000000    -4.988000000     0.742000000
O    -3.042000000    -5.626000000     5.083000000
H    -2.617000000    -5.232000000     4.321000000
H    -2.357000000    -6.155000000     5.493000000
O    -0.055000000    -7.256000000    -2.352000000
H    -0.381000000    -7.041000000    -1.478000000
H     0.556000000    -7.979000000    -2.208000000
O    -6.034000000    -5.378000000     5.928000000
H    -5.213000000    -5.775000000     5.637000000
H    -6.024000000    -5.481000000     6.880000000
O    -4.475000000    -5.890000000     2.510000000
H    -4.204000000    -5.335000000     3.241000000
H    -3.689000000    -5.976000000     1.970000000
O     0.038000000    -9.060000000     0.282000000
H    -0.818000000    -9.486000000     0.317000000
H    -0.069000000    -8.264000000     0.803000000
O    -0.589000000    -6.816000000     6.101000000
H     0.216000000    -6.503000000     5.688000000
H    -0.439000000    -6.700000000     7.039000000
O    -7.497000000    -2.409000000     3.743000000
H    -6.945000000    -2.168000000     2.999000000
H    -6.903000000    -2.854000000     4.348000000
O    -3.749000000    -4.156000000    -1.946000000
H    -3.243000000    -4.946000000    -1.754000000
H    -3.089000000    -3.477000000    -2.086000000
O    -6.689000000    -1.117000000     6.662000000
H    -6.055000000    -1.748000000     6.321000000
H    -6.204000000    -0.626000000     7.325000000
O    -5.731000000    -3.490000000    -0.082000000
H    -5.357000000    -2.877000000     0.551000000
H    -5.003000000    -3.708000000    -0.664000000
O    -0.989000000    -7.205000000     2.088000000
H    -1.014000000    -6.331000000     2.478000000
H    -0.507000000    -7.737000000     2.721000000
