215
-1452.25687
C     3.584000000     2.029000000    -3.349000000
H     3.549000000     1.089000000    -3.894000000
C     3.860000000     2.070000000    -1.986000000
C     3.801000000     3.327000000    -1.371000000
H     4.068000000     3.364000000    -0.318000000
C     4.123000000     0.777000000    -1.264000000
O     4.537000000    -0.348000000    -2.133000000
H     3.128000000     0.457000000    -0.919000000
O     4.943000000     0.840000000    -0.073000000
C     4.513000000     0.177000000     1.109000000
C     3.969000000     0.965000000     2.112000000
H     3.859000000     2.037000000     1.975000000
C     3.320000000     0.366000000     3.222000000
O     2.466000000     1.120000000     4.052000000
C     3.363000000    -1.014000000     3.341000000
C     2.645000000    -1.661000000     4.478000000
H     3.144000000    -2.624000000     4.602000000
C     1.207000000    -1.884000000     4.147000000
C     0.935000000    -3.135000000     3.524000000
H     1.773000000    -3.736000000     3.180000000
H     2.756000000    -1.069000000     5.389000000
C     4.004000000    -1.749000000     2.350000000
H     3.920000000    -2.823000000     2.500000000
C     4.476000000    -1.157000000     1.178000000
C     5.022000000    -2.080000000     0.061000000
H     5.264000000    -3.046000000     0.509000000
H     5.934000000    -1.628000000    -0.334000000
C     4.044000000    -2.405000000    -1.016000000
C     3.273000000    -3.588000000    -0.939000000
H     3.457000000    -4.338000000    -0.174000000
C     3.781000000    -1.516000000    -2.068000000
C     2.773000000    -1.745000000    -2.945000000
H     2.526000000    -1.007000000    -3.704000000
C     2.006000000    -2.879000000    -2.856000000
O     0.952000000    -2.974000000    -3.658000000
C    -0.324000000    -2.638000000    -3.093000000
C    -0.997000000    -1.696000000    -4.078000000
C    -2.275000000    -1.275000000    -3.727000000
H    -2.709000000    -1.677000000    -2.816000000
C    -0.320000000    -1.107000000    -5.177000000
H     0.711000000    -1.267000000    -5.482000000
O    -1.088000000    -3.856000000    -2.842000000
H    -0.161000000    -1.960000000    -2.242000000
C     2.278000000    -3.850000000    -1.897000000
C     1.491000000    -5.141000000    -1.763000000
H     2.116000000    -5.940000000    -1.360000000
H     1.138000000    -5.369000000    -2.771000000
C     0.236000000    -4.881000000    -0.970000000
C     0.249000000    -5.055000000     0.393000000
H     1.153000000    -5.351000000     0.919000000
C    -0.982000000    -4.318000000    -1.541000000
C    -2.071000000    -4.050000000    -0.744000000
H    -3.043000000    -3.726000000    -1.106000000
C    -2.016000000    -4.376000000     0.576000000
O    -3.224000000    -3.990000000     1.254000000
C    -3.038000000    -2.738000000     2.016000000
C    -4.268000000    -1.866000000     1.973000000
C    -5.008000000    -1.834000000     0.725000000
H    -4.703000000    -2.468000000    -0.103000000
C    -4.661000000    -0.993000000     2.995000000
H    -4.342000000    -1.119000000     4.026000000
O    -2.751000000    -3.021000000     3.407000000
H    -2.262000000    -2.093000000     1.578000000
C    -0.848000000    -4.737000000     1.203000000
C    -0.653000000    -4.959000000     2.692000000
H     0.189000000    -5.646000000     2.796000000
H    -1.530000000    -5.468000000     3.098000000
C    -0.406000000    -3.573000000     3.332000000
C    -1.446000000    -2.697000000     3.737000000
C    -1.094000000    -1.454000000     4.252000000
H    -1.885000000    -0.778000000     4.566000000
C     0.208000000    -1.019000000     4.485000000
O     0.460000000     0.263000000     4.860000000
C     1.053000000     1.168000000     3.881000000
H     0.906000000     0.863000000     2.834000000
C     0.539000000     2.581000000     3.920000000
C     1.289000000     3.675000000     3.428000000
H     2.340000000     3.530000000     3.195000000
C    -0.812000000     2.840000000     4.249000000
H    -1.422000000     1.959000000     4.433000000
C    -1.349000000     4.099000000     4.195000000
O    -2.738000000     4.261000000     4.239000000
C    -0.591000000     5.156000000     3.782000000
H    -1.050000000     6.137000000     3.693000000
C     0.720000000     4.972000000     3.333000000
O     1.444000000     6.023000000     2.947000000
C     2.573000000     5.952000000     2.104000000
C     2.424000000     5.908000000     0.706000000
H     1.389000000     5.936000000     0.374000000
C     3.782000000     5.982000000     2.722000000
H     3.775000000     6.103000000     3.803000000
C     4.939000000     6.000000000     1.919000000
H     5.910000000     6.112000000     2.396000000
C     4.888000000     6.000000000     0.545000000
H     5.768000000     6.076000000    -0.089000000
C     3.662000000     5.910000000    -0.074000000
O     3.524000000     5.699000000    -1.445000000
C     3.505000000     4.475000000    -2.066000000
C     3.361000000     4.461000000    -3.450000000
H     3.148000000     5.400000000    -3.956000000
C     3.428000000     3.229000000    -4.098000000
O     3.180000000     3.254000000    -5.424000000
C     2.698000000     2.186000000    -6.155000000
C     1.405000000     1.920000000    -6.260000000
H     0.746000000     2.561000000    -5.680000000
C     3.692000000     1.346000000    -6.678000000
H     4.747000000     1.569000000    -6.540000000
C     3.277000000     0.211000000    -7.365000000
H     4.099000000    -0.422000000    -7.691000000
C     1.901000000    -0.043000000    -7.576000000
H     1.545000000    -0.864000000    -8.193000000
C     0.956000000     0.824000000    -7.050000000
O    -0.391000000     0.464000000    -7.046000000
C    -0.999000000    -0.170000000    -6.013000000
C    -2.335000000     0.065000000    -5.661000000
H    -2.896000000     0.841000000    -6.175000000
C    -2.981000000    -0.537000000    -4.576000000
O    -4.220000000    -0.056000000    -4.225000000
C    -5.203000000    -0.816000000    -3.717000000
C    -5.563000000    -0.610000000    -2.351000000
H    -5.124000000     0.157000000    -1.719000000
C    -5.864000000    -1.772000000    -4.483000000
H    -5.481000000    -1.852000000    -5.497000000
C    -6.951000000    -2.476000000    -3.966000000
H    -7.498000000    -3.199000000    -4.566000000
C    -7.257000000    -2.266000000    -2.611000000
H    -7.963000000    -2.909000000    -2.091000000
C    -6.554000000    -1.373000000    -1.806000000
O    -6.909000000    -1.115000000    -0.434000000
C    -6.064000000    -0.924000000     0.587000000
C    -6.333000000     0.029000000     1.566000000
H    -7.222000000     0.643000000     1.456000000
C    -5.608000000    -0.019000000     2.757000000
O    -6.023000000     0.814000000     3.727000000
C    -5.108000000     1.468000000     4.544000000
C    -4.910000000     1.146000000     5.901000000
H    -5.524000000     0.365000000     6.341000000
C    -4.062000000     1.854000000     6.736000000
H    -4.040000000     1.593000000     7.791000000
C    -3.415000000     2.998000000     6.173000000
H    -2.662000000     3.510000000     6.766000000
C    -3.560000000     3.306000000     4.821000000
C    -4.411000000     2.527000000     4.000000000
H    -4.561000000     2.805000000     2.960000000
C    -1.959000000     0.695000000    -0.153000000
H    -2.969000000     0.294000000    -0.162000000
C    -0.887000000    -0.143000000     0.102000000
H    -0.964000000    -1.216000000     0.259000000
C     0.361000000     0.389000000     0.153000000
H     1.281000000    -0.276000000     0.275000000
C     0.575000000     1.778000000    -0.023000000
H     1.622000000     2.063000000    -0.094000000
C    -0.529000000     2.607000000    -0.138000000
H    -0.286000000     3.661000000    -0.030000000
C    -1.810000000     2.091000000    -0.187000000
C    -3.035000000     2.965000000    -0.502000000
O    -2.855000000     3.997000000    -1.086000000
O    -4.115000000     2.437000000    -0.368000000
O     0.715000000     7.991000000    -2.081000000
H    -0.023000000     8.438000000    -2.496000000
H     0.351000000     7.161000000    -1.773000000
O    -5.418000000     4.179000000     1.103000000
H    -4.680000000     4.788000000     1.131000000
H    -5.073000000     3.404000000     0.659000000
O    -3.054000000     5.974000000     0.726000000
H    -2.383000000     6.650000000     0.629000000
H    -2.895000000     5.372000000    -0.001000000
O    -3.492000000     7.306000000     3.193000000
H    -3.407000000     6.657000000     2.494000000
H    -4.384000000     7.642000000     3.100000000
O     0.083000000     1.041000000    -2.844000000
H    -0.223000000     1.021000000    -1.937000000
H     0.174000000     0.120000000    -3.086000000
O    -7.487000000     6.416000000     1.101000000
H    -6.731000000     6.458000000     0.515000000
H    -7.949000000     5.620000000     0.838000000
O    -6.436000000     3.054000000    -1.782000000
H    -5.754000000     2.646000000    -1.248000000
H    -6.552000000     3.923000000    -1.398000000
O    -1.650000000     5.800000000    -4.135000000
H    -1.175000000     5.327000000    -4.818000000
H    -1.695000000     6.701000000    -4.456000000
O    -4.658000000     2.947000000    -4.626000000
H    -4.654000000     1.997000000    -4.504000000
H    -3.794000000     3.230000000    -4.325000000
O    -5.583000000     5.451000000    -4.796000000
H    -5.404000000     5.910000000    -3.975000000
H    -5.470000000     4.525000000    -4.582000000
O    -6.958000000     4.849000000     3.899000000
H    -6.538000000     4.711000000     3.049000000
H    -6.280000000     5.256000000     4.438000000
O    -5.448000000     7.280000000    -0.570000000
H    -4.938000000     6.862000000    -1.264000000
H    -6.031000000     7.883000000    -1.030000000
O    -9.192000000     1.461000000    -1.131000000
H    -8.309000000     1.826000000    -1.186000000
H    -9.085000000     0.538000000    -1.362000000
O    -3.942000000     5.869000000    -2.568000000
H    -3.241000000     5.965000000    -3.213000000
H    -3.578000000     5.284000000    -1.904000000
O    -1.048000000     7.695000000     0.980000000
H    -0.818000000     7.092000000     1.687000000
H    -0.219000000     8.111000000     0.741000000
O    -2.346000000     3.493000000    -6.651000000
H    -1.490000000     3.841000000    -6.898000000
H    -2.285000000     3.358000000    -5.705000000
O    -1.725000000     2.903000000    -3.924000000
H    -1.105000000     2.203000000    -3.720000000
H    -1.855000000     3.358000000    -3.092000000
O    -8.070000000     1.917000000    -3.797000000
H    -7.358000000     2.259000000    -3.257000000
H    -8.381000000     2.675000000    -4.291000000
O    -0.537000000     5.390000000    -1.692000000
H    -0.776000000     5.524000000    -2.609000000
H    -1.218000000     4.811000000    -1.349000000
