215
-1472.43276
C    -4.502000000     2.187000000     0.000000000
H    -4.233000000     2.275000000    -1.050000000
C    -3.518000000     2.590000000     0.915000000
C    -3.719000000     2.272000000     2.292000000
H    -2.941000000     2.457000000     3.028000000
C    -2.301000000     3.301000000     0.522000000
O    -2.535000000     3.949000000    -0.762000000
H    -1.559000000     2.510000000     0.342000000
O    -1.809000000     4.224000000     1.508000000
C    -0.452000000     4.253000000     1.804000000
C    -0.087000000     3.420000000     2.867000000
H    -0.848000000     3.010000000     3.527000000
C     1.281000000     3.098000000     3.109000000
O     1.689000000     2.441000000     4.179000000
C     2.268000000     3.555000000     2.219000000
C     3.739000000     3.350000000     2.521000000
H     4.451000000     4.144000000     2.285000000
C     4.186000000     2.098000000     1.870000000
C     4.717000000     2.091000000     0.586000000
H     4.701000000     3.057000000     0.088000000
H     3.899000000     3.274000000     3.598000000
C     1.865000000     4.301000000     1.087000000
H     2.620000000     4.588000000     0.359000000
C     0.560000000     4.739000000     0.941000000
C     0.133000000     5.434000000    -0.363000000
H     0.869000000     6.182000000    -0.665000000
H    -0.748000000     6.055000000    -0.188000000
C    -0.257000000     4.484000000    -1.524000000
C     0.749000000     4.108000000    -2.328000000
H     1.733000000     4.562000000    -2.245000000
C    -1.517000000     3.949000000    -1.760000000
C    -1.825000000     3.115000000    -2.856000000
H    -2.801000000     2.650000000    -2.969000000
C    -0.738000000     2.776000000    -3.654000000
O    -0.954000000     1.794000000    -4.498000000
C    -0.477000000     0.465000000    -4.133000000
C    -1.447000000    -0.613000000    -4.467000000
C    -0.984000000    -1.949000000    -4.716000000
H     0.079000000    -2.165000000    -4.648000000
C    -2.824000000    -0.319000000    -4.475000000
H    -3.168000000     0.677000000    -4.207000000
O     0.775000000     0.292000000    -4.787000000
H    -0.443000000     0.442000000    -3.034000000
C     0.550000000     3.304000000    -3.487000000
C     1.740000000     3.032000000    -4.444000000
H     2.483000000     3.832000000    -4.422000000
H     1.413000000     2.930000000    -5.481000000
C     2.496000000     1.796000000    -3.930000000
C     3.567000000     1.935000000    -2.988000000
H     3.895000000     2.927000000    -2.689000000
C     1.958000000     0.500000000    -4.040000000
C     2.692000000    -0.580000000    -3.617000000
H     2.337000000    -1.597000000    -3.763000000
C     3.807000000    -0.414000000    -2.837000000
O     4.388000000    -1.546000000    -2.378000000
C     3.971000000    -1.762000000    -1.005000000
C     3.305000000    -3.042000000    -0.814000000
C     3.092000000    -3.894000000    -1.905000000
H     3.566000000    -3.664000000    -2.855000000
C     2.619000000    -3.366000000     0.361000000
H     2.618000000    -2.602000000     1.135000000
O     5.009000000    -1.480000000    -0.061000000
H     3.205000000    -1.030000000    -0.712000000
C     4.278000000     0.867000000    -2.500000000
C     5.460000000     0.977000000    -1.541000000
H     5.913000000     1.961000000    -1.675000000
H     6.143000000     0.178000000    -1.838000000
C     5.059000000     0.924000000    -0.045000000
C     4.911000000    -0.284000000     0.600000000
C     4.305000000    -0.281000000     1.850000000
H     4.036000000    -1.217000000     2.331000000
C     3.969000000     0.884000000     2.500000000
O     3.422000000     0.783000000     3.709000000
C     2.046000000     1.074000000     3.929000000
H     1.526000000     0.751000000     3.015000000
C     1.380000000     0.215000000     4.980000000
C     0.194000000     0.661000000     5.589000000
H    -0.194000000     1.664000000     5.429000000
C     1.797000000    -1.095000000     5.217000000
H     2.697000000    -1.482000000     4.748000000
C     1.026000000    -1.987000000     6.049000000
O     1.478000000    -3.276000000     6.237000000
C    -0.131000000    -1.495000000     6.638000000
H    -0.748000000    -2.155000000     7.242000000
C    -0.514000000    -0.159000000     6.448000000
O    -1.544000000     0.383000000     7.208000000
C    -2.619000000     1.081000000     6.717000000
C    -3.203000000     0.693000000     5.489000000
H    -2.867000000    -0.203000000     4.974000000
C    -3.155000000     2.207000000     7.430000000
H    -2.568000000     2.619000000     8.246000000
C    -4.197000000     2.923000000     6.793000000
H    -4.597000000     3.838000000     7.222000000
C    -4.861000000     2.410000000     5.706000000
H    -5.710000000     2.951000000     5.296000000
C    -4.324000000     1.329000000     5.073000000
O    -4.978000000     0.860000000     3.916000000
C    -4.830000000     1.426000000     2.643000000
C    -5.766000000     1.043000000     1.736000000
H    -6.586000000     0.419000000     2.082000000
C    -5.587000000     1.344000000     0.398000000
O    -6.567000000     0.925000000    -0.505000000
C    -6.530000000     0.928000000    -1.892000000
C    -5.772000000    -0.044000000    -2.621000000
H    -5.251000000    -0.810000000    -2.053000000
C    -7.388000000     1.835000000    -2.585000000
H    -8.089000000     2.464000000    -2.042000000
C    -7.342000000     1.746000000    -3.981000000
H    -8.075000000     2.309000000    -4.553000000
C    -6.502000000     0.848000000    -4.704000000
H    -6.542000000     0.754000000    -5.786000000
C    -5.764000000    -0.068000000    -4.044000000
O    -5.079000000    -1.059000000    -4.773000000
C    -3.766000000    -1.366000000    -4.726000000
C    -3.349000000    -2.581000000    -5.146000000
H    -4.134000000    -3.289000000    -5.399000000
C    -1.976000000    -2.907000000    -5.019000000
O    -1.660000000    -4.251000000    -5.053000000
C    -0.312000000    -4.693000000    -5.145000000
C     0.340000000    -5.031000000    -3.957000000
H    -0.141000000    -4.862000000    -2.996000000
C     0.311000000    -4.782000000    -6.401000000
H    -0.269000000    -4.570000000    -7.296000000
C     1.578000000    -5.336000000    -6.452000000
H     1.979000000    -5.612000000    -7.424000000
C     2.222000000    -5.679000000    -5.238000000
H     3.211000000    -6.132000000    -5.229000000
C     1.637000000    -5.540000000    -4.009000000
O     2.253000000    -5.989000000    -2.855000000
C     2.546000000    -5.176000000    -1.741000000
C     2.045000000    -5.519000000    -0.496000000
H     1.629000000    -6.518000000    -0.400000000
C     2.036000000    -4.604000000     0.547000000
O     1.364000000    -4.854000000     1.739000000
C     1.952000000    -4.807000000     2.944000000
C     3.149000000    -5.498000000     3.200000000
H     3.558000000    -6.040000000     2.351000000
C     3.892000000    -5.268000000     4.380000000
H     4.894000000    -5.667000000     4.514000000
C     3.268000000    -4.559000000     5.400000000
H     3.740000000    -4.383000000     6.364000000
C     1.984000000    -3.984000000     5.218000000
C     1.407000000    -4.022000000     3.950000000
H     0.475000000    -3.495000000     3.759000000
C    -0.218000000    -2.392000000     0.130000000
H    -0.365000000    -3.455000000    -0.047000000
C     0.380000000    -1.585000000    -0.804000000
H     0.674000000    -2.049000000    -1.742000000
C     0.646000000    -0.261000000    -0.579000000
H     1.245000000     0.319000000    -1.299000000
C     0.309000000     0.346000000     0.621000000
H     0.498000000     1.399000000     0.813000000
C    -0.337000000    -0.494000000     1.547000000
H    -0.717000000    -0.060000000     2.468000000
C    -0.676000000    -1.827000000     1.269000000
C    -1.551000000    -2.559000000     2.236000000
O    -2.029000000    -1.893000000     3.085000000
O    -1.707000000    -3.782000000     2.116000000
O    -0.631000000    -6.559000000     0.458000000
H    -0.169000000    -5.836000000     0.882000000
H    -1.551000000    -6.293000000     0.466000000
O    -0.433000000    -8.618000000    -1.202000000
H     0.392000000    -8.924000000    -0.826000000
H    -0.640000000    -7.823000000    -0.711000000
O    -2.839000000    -0.282000000    -1.333000000
H    -2.091000000    -0.640000000    -0.855000000
H    -3.480000000    -0.073000000    -0.654000000
O    -6.384000000    -4.328000000     3.645000000
H    -5.958000000    -3.646000000     4.165000000
H    -5.663000000    -4.869000000     3.323000000
O    -4.679000000    -1.734000000     2.738000000
H    -3.760000000    -1.997000000     2.692000000
H    -4.659000000    -0.864000000     3.137000000
O    -5.229000000    -2.311000000     0.067000000
H    -5.826000000    -3.051000000     0.176000000
H    -5.159000000    -1.928000000     0.941000000
O    -3.198000000    -2.784000000     8.080000000
H    -2.904000000    -2.829000000     7.171000000
H    -3.615000000    -1.926000000     8.155000000
O    -3.222000000    -3.253000000     5.265000000
H    -2.692000000    -2.840000000     4.584000000
H    -2.824000000    -4.116000000     5.387000000
O    -6.567000000    -7.077000000     2.384000000
H    -6.034000000    -6.355000000     2.051000000
H    -7.368000000    -6.658000000     2.700000000
O    -5.604000000    -2.000000000     5.763000000
H    -5.271000000    -1.397000000     6.428000000
H    -4.890000000    -2.623000000     5.625000000
O    -4.202000000    -5.080000000     2.207000000
H    -3.281000000    -4.820000000     2.185000000
H    -4.609000000    -4.577000000     1.501000000
O    -1.921000000    -8.016000000     2.966000000
H    -2.070000000    -7.809000000     2.044000000
H    -2.770000000    -7.873000000     3.384000000
O    -3.297000000    -3.608000000    -1.686000000
H    -2.766000000    -2.831000000    -1.863000000
H    -4.040000000    -3.280000000    -1.180000000
O    -3.115000000    -8.059000000     0.479000000
H    -2.650000000    -8.579000000    -0.176000000
H    -3.827000000    -7.642000000    -0.007000000
O     1.091000000    -8.410000000     2.116000000
H     0.813000000    -7.498000000     2.198000000
H     1.161000000    -8.555000000     1.172000000
O    -3.561000000    -5.890000000    -3.247000000
H    -3.522000000    -5.169000000    -2.618000000
H    -3.031000000    -5.592000000    -3.986000000
O    -7.485000000    -1.264000000     3.486000000
H    -6.608000000    -1.633000000     3.595000000
H    -7.576000000    -0.645000000     4.211000000
O    -6.600000000    -4.558000000     0.482000000
H    -7.478000000    -4.370000000     0.814000000
H    -6.723000000    -4.697000000    -0.457000000
O    -1.514000000    -5.541000000     4.237000000
H    -1.309000000    -5.069000000     3.430000000
H    -1.794000000    -6.408000000     3.942000000
