215
-1445.86562
C    -4.521000000     2.497000000     0.035000000
H    -4.233000000     3.027000000    -0.869000000
C    -3.467000000     2.494000000     0.936000000
C    -3.688000000     1.802000000     2.137000000
H    -2.944000000     1.879000000     2.926000000
C    -2.179000000     3.349000000     0.806000000
O    -2.194000000     4.324000000    -0.179000000
H    -1.408000000     2.628000000     0.496000000
O    -1.731000000     3.977000000     2.044000000
C    -0.377000000     3.832000000     2.272000000
C    -0.072000000     2.865000000     3.264000000
H    -0.927000000     2.454000000     3.793000000
C     1.260000000     2.481000000     3.452000000
O     1.586000000     1.573000000     4.348000000
C     2.322000000     3.189000000     2.787000000
C     3.727000000     2.821000000     2.979000000
H     4.323000000     3.683000000     2.674000000
C     4.011000000     1.542000000     2.123000000
C     4.619000000     1.627000000     0.894000000
H     4.846000000     2.601000000     0.468000000
H     3.985000000     2.599000000     4.017000000
C     1.960000000     4.205000000     1.914000000
H     2.820000000     4.651000000     1.420000000
C     0.611000000     4.516000000     1.609000000
C     0.302000000     5.566000000     0.562000000
H     1.022000000     6.382000000     0.483000000
H    -0.651000000     6.036000000     0.815000000
C     0.118000000     4.864000000    -0.812000000
C     1.190000000     4.557000000    -1.640000000
H     2.167000000     4.942000000    -1.360000000
C    -1.172000000     4.374000000    -1.157000000
C    -1.355000000     3.754000000    -2.366000000
H    -2.289000000     3.317000000    -2.711000000
C    -0.280000000     3.397000000    -3.133000000
O    -0.496000000     2.654000000    -4.261000000
C    -0.233000000     1.212000000    -4.190000000
C    -1.337000000     0.347000000    -4.723000000
C    -0.957000000    -0.909000000    -5.179000000
H     0.107000000    -1.099000000    -5.299000000
C    -2.684000000     0.663000000    -4.521000000
H    -2.938000000     1.676000000    -4.222000000
O     0.983000000     1.008000000    -4.897000000
H    -0.127000000     1.022000000    -3.112000000
C     0.996000000     3.767000000    -2.770000000
C     2.167000000     3.567000000    -3.653000000
H     2.899000000     4.360000000    -3.488000000
H     1.787000000     3.837000000    -4.640000000
C     2.712000000     2.201000000    -3.526000000
C     3.805000000     2.024000000    -2.686000000
H     4.351000000     2.836000000    -2.212000000
C     2.060000000     1.025000000    -4.036000000
C     2.633000000    -0.240000000    -3.863000000
H     2.243000000    -1.170000000    -4.271000000
C     3.655000000    -0.390000000    -2.959000000
O     3.932000000    -1.647000000    -2.526000000
C     3.375000000    -1.976000000    -1.173000000
C     2.680000000    -3.300000000    -1.146000000
C     2.169000000    -3.902000000    -2.299000000
H     2.177000000    -3.360000000    -3.241000000
C     2.442000000    -3.937000000     0.099000000
H     2.784000000    -3.428000000     0.996000000
O     4.468000000    -1.873000000    -0.192000000
H     2.659000000    -1.220000000    -0.821000000
C     4.283000000     0.705000000    -2.435000000
C     5.373000000     0.552000000    -1.350000000
H     6.050000000     1.402000000    -1.453000000
H     6.022000000    -0.318000000    -1.470000000
C     4.804000000     0.494000000     0.058000000
C     4.521000000    -0.748000000     0.593000000
C     4.036000000    -0.896000000     1.859000000
H     3.717000000    -1.865000000     2.232000000
C     3.702000000     0.244000000     2.583000000
O     3.171000000     0.012000000     3.803000000
C     1.746000000     0.232000000     3.906000000
H     1.257000000     0.042000000     2.939000000
C     1.137000000    -0.734000000     4.860000000
C    -0.049000000    -0.455000000     5.598000000
H    -0.584000000     0.489000000     5.534000000
C     1.596000000    -2.031000000     4.966000000
H     2.322000000    -2.361000000     4.227000000
C     0.961000000    -2.860000000     5.879000000
O     1.455000000    -4.160000000     5.900000000
C    -0.109000000    -2.475000000     6.677000000
H    -0.511000000    -3.258000000     7.315000000
C    -0.729000000    -1.308000000     6.439000000
O    -1.907000000    -0.930000000     7.030000000
C    -2.873000000    -0.081000000     6.466000000
C    -3.301000000    -0.138000000     5.180000000
H    -2.942000000    -0.938000000     4.537000000
C    -3.257000000     0.932000000     7.288000000
H    -2.836000000     1.048000000     8.284000000
C    -4.185000000     1.847000000     6.889000000
H    -4.577000000     2.588000000     7.582000000
C    -4.754000000     1.706000000     5.672000000
H    -5.598000000     2.339000000     5.410000000
C    -4.282000000     0.743000000     4.754000000
O    -5.039000000     0.347000000     3.585000000
C    -4.847000000     0.992000000     2.364000000
C    -5.919000000     1.162000000     1.476000000
H    -6.870000000     0.704000000     1.735000000
C    -5.754000000     1.867000000     0.261000000
O    -6.788000000     1.901000000    -0.674000000
C    -6.566000000     2.038000000    -2.025000000
C    -5.878000000     1.002000000    -2.659000000
H    -5.674000000     0.062000000    -2.152000000
C    -6.745000000     3.278000000    -2.729000000
H    -7.215000000     4.130000000    -2.244000000
C    -6.356000000     3.310000000    -4.080000000
H    -6.567000000     4.178000000    -4.699000000
C    -5.787000000     2.251000000    -4.724000000
H    -5.430000000     2.417000000    -5.737000000
C    -5.544000000     1.082000000    -4.040000000
O    -5.067000000    -0.041000000    -4.692000000
C    -3.705000000    -0.261000000    -4.870000000
C    -3.332000000    -1.528000000    -5.383000000
H    -4.034000000    -2.223000000    -5.837000000
C    -1.978000000    -1.814000000    -5.570000000
O    -1.642000000    -3.047000000    -6.059000000
C    -0.446000000    -3.657000000    -5.906000000
C    -0.305000000    -4.350000000    -4.710000000
H    -1.069000000    -4.044000000    -3.999000000
C     0.515000000    -3.884000000    -6.952000000
H     0.353000000    -3.372000000    -7.897000000
C     1.666000000    -4.585000000    -6.679000000
H     2.392000000    -4.864000000    -7.438000000
C     1.859000000    -5.170000000    -5.359000000
H     2.801000000    -5.609000000    -5.041000000
C     0.787000000    -5.167000000    -4.474000000
O     0.982000000    -5.746000000    -3.232000000
C     1.540000000    -5.181000000    -2.194000000
C     1.335000000    -5.808000000    -0.975000000
H     0.895000000    -6.799000000    -0.895000000
C     1.760000000    -5.148000000     0.201000000
O     1.660000000    -5.867000000     1.390000000
C     2.241000000    -5.737000000     2.651000000
C     3.639000000    -5.905000000     2.861000000
H     4.203000000    -6.452000000     2.110000000
C     4.248000000    -5.471000000     4.049000000
H     5.300000000    -5.586000000     4.295000000
C     3.393000000    -4.949000000     5.045000000
H     3.811000000    -4.657000000     6.005000000
C     2.068000000    -4.799000000     4.854000000
C     1.442000000    -5.193000000     3.652000000
H     0.376000000    -5.110000000     3.457000000
C    -0.970000000    -2.649000000    -0.094000000
H    -0.927000000    -3.701000000    -0.364000000
C    -0.418000000    -1.662000000    -0.885000000
H    -0.022000000    -1.975000000    -1.848000000
C    -0.265000000    -0.383000000    -0.387000000
H     0.314000000     0.382000000    -0.997000000
C    -0.815000000    -0.105000000     0.855000000
H    -0.711000000     0.889000000     1.281000000
C    -1.469000000    -1.068000000     1.616000000
H    -1.862000000    -0.877000000     2.612000000
C    -1.559000000    -2.392000000     1.126000000
C    -2.230000000    -3.551000000     1.912000000
O    -2.865000000    -3.354000000     2.951000000
O    -2.206000000    -4.711000000     1.524000000
O    -2.249000000    -5.762000000    -0.847000000
H    -2.113000000    -5.150000000    -0.123000000
H    -2.998000000    -6.291000000    -0.575000000
O    -0.387000000    -6.151000000     7.278000000
H    -0.519000000    -6.011000000     8.216000000
H    -1.272000000    -6.240000000     6.923000000
O    -3.569000000    -1.745000000    -2.052000000
H    -2.835000000    -1.207000000    -1.755000000
H    -4.081000000    -1.910000000    -1.261000000
O    -5.388000000    -2.613000000     3.242000000
H    -4.507000000    -2.960000000     3.379000000
H    -5.475000000    -1.916000000     3.892000000
O    -4.983000000    -2.105000000     0.431000000
H    -4.848000000    -2.298000000     1.359000000
H    -5.799000000    -2.554000000     0.209000000
O    -7.896000000    -5.833000000     2.264000000
H    -7.887000000    -5.398000000     3.117000000
H    -7.017000000    -5.694000000     1.914000000
O    -2.819000000    -3.916000000     5.527000000
H    -2.847000000    -3.350000000     4.755000000
H    -2.252000000    -4.643000000     5.270000000
O    -1.544000000    -7.655000000    -2.990000000
H    -1.564000000    -6.960000000    -2.332000000
H    -1.745000000    -8.453000000    -2.501000000
O    -5.502000000    -5.468000000     7.034000000
H    -6.125000000    -4.755000000     7.172000000
H    -4.792000000    -5.072000000     6.528000000
O    -4.904000000    -5.404000000     2.121000000
H    -3.958000000    -5.364000000     1.977000000
H    -5.156000000    -4.499000000     2.307000000
O    -0.841000000    -9.264000000     1.261000000
H    -1.731000000    -9.615000000     1.293000000
H    -0.937000000    -8.344000000     1.507000000
O    -2.242000000    -6.637000000     5.157000000
H    -2.168000000    -6.846000000     4.226000000
H    -2.741000000    -7.365000000     5.528000000
O    -7.849000000    -4.582000000     4.746000000
H    -8.517000000    -3.931000000     4.962000000
H    -7.020000000    -4.114000000     4.843000000
O     1.107000000    -8.328000000     4.332000000
H     1.220000000    -8.072000000     5.247000000
H     1.243000000    -7.520000000     3.838000000
O    -5.201000000    -7.216000000    -0.382000000
H    -5.200000000    -6.654000000     0.393000000
H    -6.104000000    -7.187000000    -0.698000000
O    -4.278000000    -4.224000000    -3.419000000
H    -3.558000000    -4.826000000    -3.228000000
H    -3.957000000    -3.368000000    -3.135000000
O    -7.881000000    -2.484000000     1.733000000
H    -7.630000000    -3.206000000     1.158000000
H    -7.394000000    -2.641000000     2.542000000
O    -7.045000000    -3.950000000    -0.438000000
H    -7.658000000    -4.671000000    -0.579000000
H    -6.817000000    -3.653000000    -1.319000000
O    -2.111000000    -7.047000000     2.345000000
H    -2.012000000    -6.151000000     2.024000000
H    -3.008000000    -7.287000000     2.113000000
