215
-1471.11985
C    -4.119000000     3.200000000     0.386000000
H    -4.100000000     3.158000000    -0.700000000
C    -3.100000000     3.752000000     1.084000000
C    -3.152000000     3.899000000     2.474000000
H    -2.335000000     4.354000000     3.029000000
C    -1.810000000     3.976000000     0.313000000
O    -2.026000000     4.475000000    -1.029000000
H    -1.347000000     2.988000000     0.177000000
O    -0.888000000     4.974000000     0.859000000
C     0.444000000     4.644000000     0.896000000
C     0.825000000     3.830000000     1.966000000
H     0.222000000     3.643000000     2.850000000
C     2.115000000     3.310000000     2.008000000
O     2.444000000     2.580000000     3.098000000
C     3.051000000     3.554000000     0.976000000
C     4.437000000     3.049000000     1.141000000
H     5.142000000     3.685000000     0.603000000
C     4.520000000     1.606000000     0.648000000
C     4.672000000     1.349000000    -0.705000000
H     4.709000000     2.221000000    -1.352000000
H     4.767000000     3.223000000     2.167000000
C     2.568000000     4.270000000    -0.107000000
H     3.245000000     4.516000000    -0.921000000
C     1.282000000     4.770000000    -0.220000000
C     0.773000000     5.385000000    -1.547000000
H     1.507000000     5.890000000    -2.178000000
H     0.194000000     6.276000000    -1.293000000
C    -0.006000000     4.346000000    -2.397000000
C     0.751000000     3.662000000    -3.407000000
H     1.819000000     3.840000000    -3.503000000
C    -1.344000000     3.949000000    -2.142000000
C    -1.876000000     2.926000000    -2.819000000
H    -2.875000000     2.551000000    -2.612000000
C    -1.080000000     2.259000000    -3.743000000
O    -1.593000000     1.199000000    -4.416000000
C    -1.365000000    -0.066000000    -3.920000000
C    -2.652000000    -0.918000000    -3.832000000
C    -2.551000000    -2.334000000    -3.717000000
H    -1.631000000    -2.905000000    -3.823000000
C    -3.855000000    -0.245000000    -3.774000000
H    -4.052000000     0.816000000    -3.905000000
O    -0.282000000    -0.707000000    -4.619000000
H    -1.105000000    -0.029000000    -2.852000000
C     0.246000000     2.552000000    -3.991000000
C     1.116000000     1.817000000    -5.001000000
H     1.890000000     2.470000000    -5.409000000
H     0.522000000     1.482000000    -5.854000000
C     1.816000000     0.600000000    -4.443000000
C     3.131000000     0.645000000    -3.994000000
H     3.614000000     1.615000000    -4.079000000
C     1.074000000    -0.594000000    -4.301000000
C     1.694000000    -1.747000000    -3.914000000
H     1.214000000    -2.713000000    -3.785000000
C     3.033000000    -1.716000000    -3.445000000
O     3.431000000    -2.836000000    -2.679000000
C     3.258000000    -2.677000000    -1.278000000
C     2.714000000    -4.009000000    -0.722000000
C     1.534000000    -4.613000000    -1.245000000
H     1.043000000    -4.301000000    -2.163000000
C     3.278000000    -4.596000000     0.431000000
H     4.165000000    -4.176000000     0.897000000
O     4.554000000    -2.310000000    -0.719000000
H     2.549000000    -1.863000000    -1.070000000
C     3.693000000    -0.484000000    -3.351000000
C     4.974000000    -0.220000000    -2.622000000
H     5.408000000     0.722000000    -2.965000000
H     5.680000000    -1.048000000    -2.709000000
C     4.720000000    -0.014000000    -1.166000000
C     4.712000000    -1.040000000    -0.241000000
C     4.630000000    -0.769000000     1.195000000
H     4.559000000    -1.600000000     1.893000000
C     4.481000000     0.535000000     1.631000000
O     3.995000000     0.820000000     2.875000000
C     2.594000000     1.143000000     2.967000000
H     2.170000000     0.904000000     1.981000000
C     1.944000000     0.423000000     4.153000000
C     0.969000000     0.997000000     5.031000000
H     0.805000000     2.067000000     4.927000000
C     2.288000000    -0.954000000     4.345000000
H     3.077000000    -1.400000000     3.745000000
C     1.593000000    -1.737000000     5.250000000
O     1.846000000    -3.047000000     5.455000000
C     0.475000000    -1.145000000     5.878000000
H    -0.243000000    -1.711000000     6.466000000
C     0.230000000     0.213000000     5.880000000
O    -0.908000000     0.588000000     6.522000000
C    -1.540000000     1.814000000     6.417000000
C    -2.534000000     2.040000000     5.482000000
H    -2.811000000     1.207000000     4.841000000
C    -1.212000000     2.871000000     7.258000000
H    -0.557000000     2.672000000     8.102000000
C    -1.770000000     4.123000000     7.137000000
H    -1.373000000     4.975000000     7.683000000
C    -2.709000000     4.294000000     6.172000000
H    -3.121000000     5.283000000     5.990000000
C    -3.140000000     3.266000000     5.384000000
O    -4.246000000     3.401000000     4.529000000
C    -4.240000000     3.420000000     3.160000000
C    -5.370000000     2.989000000     2.484000000
H    -6.251000000     2.630000000     3.011000000
C    -5.260000000     2.768000000     1.099000000
O    -6.316000000     2.121000000     0.443000000
C    -6.459000000     2.014000000    -0.914000000
C    -6.283000000     0.789000000    -1.545000000
H    -5.861000000    -0.024000000    -0.960000000
C    -6.800000000     3.202000000    -1.646000000
H    -6.889000000     4.190000000    -1.202000000
C    -7.016000000     3.099000000    -3.024000000
H    -7.314000000     3.985000000    -3.578000000
C    -6.973000000     1.870000000    -3.627000000
H    -7.101000000     1.724000000    -4.696000000
C    -6.526000000     0.729000000    -2.915000000
O    -6.282000000    -0.440000000    -3.590000000
C    -5.032000000    -1.061000000    -3.640000000
C    -4.979000000    -2.436000000    -3.598000000
H    -5.839000000    -3.099000000    -3.651000000
C    -3.728000000    -3.071000000    -3.696000000
O    -3.626000000    -4.482000000    -3.738000000
C    -2.447000000    -5.332000000    -3.680000000
C    -1.771000000    -5.458000000    -2.454000000
H    -2.083000000    -4.967000000    -1.536000000
C    -1.963000000    -5.849000000    -4.849000000
H    -2.583000000    -5.623000000    -5.713000000
C    -0.777000000    -6.598000000    -4.833000000
H    -0.326000000    -6.991000000    -5.740000000
C    -0.200000000    -6.883000000    -3.574000000
H     0.666000000    -7.537000000    -3.644000000
C    -0.559000000    -6.202000000    -2.386000000
O    -0.015000000    -6.520000000    -1.209000000
C     1.066000000    -5.801000000    -0.682000000
C     1.668000000    -6.324000000     0.436000000
H     1.194000000    -7.215000000     0.840000000
C     2.724000000    -5.694000000     1.075000000
O     3.384000000    -6.180000000     2.177000000
C     3.598000000    -5.391000000     3.255000000
C     4.908000000    -5.296000000     3.649000000
H     5.710000000    -5.955000000     3.322000000
C     5.247000000    -4.364000000     4.577000000
H     6.276000000    -4.215000000     4.896000000
C     4.196000000    -3.579000000     5.160000000
H     4.421000000    -2.900000000     5.979000000
C     2.849000000    -3.712000000     4.833000000
C     2.561000000    -4.703000000     3.912000000
H     1.563000000    -4.811000000     3.495000000
C    -0.709000000    -2.294000000     1.303000000
H    -0.540000000    -3.313000000     0.965000000
C    -0.498000000    -1.226000000     0.407000000
H    -0.160000000    -1.480000000    -0.595000000
C    -0.753000000     0.075000000     0.733000000
H    -0.567000000     0.885000000     0.079000000
C    -1.305000000     0.379000000     2.000000000
H    -1.593000000     1.417000000     2.140000000
C    -1.510000000    -0.644000000     2.891000000
H    -1.982000000    -0.459000000     3.852000000
C    -1.176000000    -1.972000000     2.538000000
C    -1.555000000    -3.046000000     3.546000000
O    -2.150000000    -2.777000000     4.579000000
O    -1.165000000    -4.230000000     3.399000000
O    -2.559000000    -4.050000000     6.799000000
H    -3.496000000    -4.218000000     6.703000000
H    -2.324000000    -3.547000000     6.019000000
O    -4.888000000    -1.113000000     2.141000000
H    -4.150000000    -0.879000000     1.579000000
H    -4.846000000    -2.067000000     2.208000000
O    -5.843000000    -3.867000000     4.748000000
H    -5.100000000    -3.266000000     4.797000000
H    -5.452000000    -4.717000000     4.549000000
O    -5.699000000     0.308000000     4.978000000
H    -5.073000000    -0.365000000     5.248000000
H    -5.374000000     0.610000000     4.130000000
O    -7.443000000    -0.466000000     2.027000000
H    -6.507000000    -0.639000000     1.932000000
H    -7.618000000    -0.600000000     2.959000000
O    -4.164000000    -3.696000000     1.918000000
H    -4.186000000    -4.337000000     2.629000000
H    -3.378000000    -3.919000000     1.419000000
O     2.460000000    -4.550000000     8.548000000
H     2.106000000    -3.935000000     7.906000000
H     1.687000000    -4.940000000     8.958000000
O    -4.174000000    -1.842000000     5.790000000
H    -3.984000000    -1.986000000     6.717000000
H    -3.377000000    -2.118000000     5.336000000
O     1.090000000    -6.031000000     6.483000000
H     0.732000000    -5.166000000     6.680000000
H     2.038000000    -5.900000000     6.469000000
O    -0.766000000    -6.581000000     4.424000000
H    -0.045000000    -6.577000000     5.053000000
H    -0.718000000    -5.724000000     3.999000000
O    -2.053000000    -5.358000000     1.107000000
H    -1.730000000    -5.000000000     1.934000000
H    -1.517000000    -6.137000000     0.958000000
O    -6.029000000    -4.754000000     0.346000000
H    -6.449000000    -5.527000000     0.724000000
H    -5.469000000    -4.419000000     1.046000000
O    -0.044000000    -3.882000000     7.705000000
H     0.120000000    -3.395000000     8.512000000
H    -0.939000000    -3.646000000     7.460000000
O    -3.948000000    -7.176000000    -0.293000000
H    -3.373000000    -6.699000000     0.305000000
H    -4.555000000    -7.645000000     0.280000000
O    -1.856000000    -6.371000000     8.284000000
H    -1.144000000    -6.487000000     7.654000000
H    -2.158000000    -5.474000000     8.141000000
O    -3.169000000    -1.954000000     8.673000000
H    -2.392000000    -2.491000000     8.829000000
H    -2.845000000    -1.053000000     8.693000000
O    -3.218000000    -8.298000000     4.439000000
H    -3.219000000    -8.871000000     5.206000000
H    -2.351000000    -7.894000000     4.443000000
O    -1.121000000    -7.743000000     1.318000000
H    -0.499000000    -7.814000000     2.042000000
H    -1.605000000    -8.569000000     1.336000000
O    -3.687000000    -5.499000000     4.016000000
H    -3.511000000    -6.440000000     4.032000000
H    -2.827000000    -5.093000000     4.132000000
