215
-1449.09665
C     3.678000000     1.760000000    -3.219000000
H     3.799000000     0.927000000    -3.907000000
C     3.946000000     1.628000000    -1.832000000
C     3.889000000     2.782000000    -1.022000000
H     4.054000000     2.737000000     0.051000000
C     4.188000000     0.294000000    -1.137000000
O     4.631000000    -0.737000000    -2.137000000
H     3.209000000    -0.050000000    -0.770000000
O     5.107000000     0.344000000     0.039000000
C     4.607000000    -0.253000000     1.186000000
C     4.001000000     0.533000000     2.114000000
H     3.961000000     1.605000000     1.943000000
C     3.387000000    -0.056000000     3.226000000
O     2.727000000     0.777000000     4.188000000
C     3.212000000    -1.501000000     3.308000000
C     2.479000000    -2.158000000     4.451000000
H     2.822000000    -3.192000000     4.529000000
C     1.006000000    -2.272000000     4.119000000
C     0.483000000    -3.453000000     3.593000000
H     1.204000000    -4.236000000     3.375000000
H     2.673000000    -1.557000000     5.342000000
C     3.686000000    -2.265000000     2.258000000
H     3.481000000    -3.331000000     2.313000000
C     4.386000000    -1.687000000     1.206000000
C     4.950000000    -2.621000000     0.159000000
H     5.249000000    -3.588000000     0.568000000
H     5.802000000    -2.101000000    -0.282000000
C     3.970000000    -2.779000000    -1.049000000
C     3.135000000    -3.839000000    -0.920000000
H     3.268000000    -4.563000000    -0.120000000
C     3.870000000    -1.886000000    -2.149000000
C     2.785000000    -1.971000000    -3.011000000
H     2.709000000    -1.312000000    -3.873000000
C     1.918000000    -3.054000000    -2.950000000
O     0.914000000    -3.121000000    -3.794000000
C    -0.317000000    -2.637000000    -3.301000000
C    -0.961000000    -1.627000000    -4.261000000
C    -2.182000000    -1.011000000    -3.997000000
H    -2.766000000    -1.361000000    -3.150000000
C    -0.289000000    -1.221000000    -5.385000000
H     0.680000000    -1.628000000    -5.663000000
O    -1.204000000    -3.761000000    -3.036000000
H    -0.156000000    -2.140000000    -2.333000000
C     2.069000000    -3.956000000    -1.872000000
C     1.109000000    -5.115000000    -1.879000000
H     1.606000000    -5.937000000    -1.359000000
H     0.852000000    -5.375000000    -2.908000000
C    -0.132000000    -4.699000000    -1.096000000
C    -0.179000000    -4.943000000     0.265000000
H     0.714000000    -5.380000000     0.706000000
C    -1.235000000    -4.074000000    -1.726000000
C    -2.354000000    -3.706000000    -1.026000000
H    -3.134000000    -3.190000000    -1.581000000
C    -2.395000000    -3.905000000     0.351000000
O    -3.448000000    -3.402000000     0.986000000
C    -3.293000000    -2.162000000     1.811000000
C    -4.516000000    -1.289000000     1.607000000
C    -5.247000000    -1.159000000     0.435000000
H    -4.945000000    -1.791000000    -0.396000000
C    -4.859000000    -0.431000000     2.668000000
H    -4.385000000    -0.662000000     3.619000000
O    -3.092000000    -2.677000000     3.101000000
H    -2.393000000    -1.578000000     1.569000000
C    -1.286000000    -4.564000000     1.002000000
C    -1.286000000    -4.808000000     2.508000000
H    -0.713000000    -5.718000000     2.696000000
H    -2.312000000    -5.031000000     2.810000000
C    -0.827000000    -3.619000000     3.342000000
C    -1.742000000    -2.664000000     3.598000000
C    -1.249000000    -1.445000000     4.042000000
H    -1.949000000    -0.614000000     4.021000000
C     0.125000000    -1.219000000     4.361000000
O     0.573000000     0.036000000     4.755000000
C     1.361000000     0.927000000     3.891000000
H     1.241000000     0.651000000     2.833000000
C     0.886000000     2.319000000     4.096000000
C     1.724000000     3.388000000     3.951000000
H     2.757000000     3.236000000     3.651000000
C    -0.450000000     2.568000000     4.416000000
H    -1.209000000     1.792000000     4.361000000
C    -0.919000000     3.833000000     4.626000000
O    -2.245000000     4.080000000     4.848000000
C    -0.031000000     4.866000000     4.390000000
H    -0.438000000     5.873000000     4.443000000
C     1.280000000     4.646000000     4.155000000
O     2.177000000     5.689000000     3.976000000
C     3.041000000     5.611000000     2.928000000
C     2.629000000     5.379000000     1.638000000
H     1.560000000     5.306000000     1.456000000
C     4.337000000     5.946000000     3.178000000
H     4.670000000     6.233000000     4.172000000
C     5.278000000     5.751000000     2.206000000
H     6.298000000     5.951000000     2.523000000
C     4.957000000     5.365000000     0.876000000
H     5.733000000     5.452000000     0.120000000
C     3.570000000     5.257000000     0.639000000
O     3.201000000     5.078000000    -0.680000000
C     3.450000000     4.006000000    -1.534000000
C     3.172000000     4.120000000    -2.853000000
H     3.061000000     5.144000000    -3.199000000
C     3.408000000     3.013000000    -3.736000000
O     3.105000000     3.293000000    -5.121000000
C     2.810000000     2.272000000    -6.029000000
C     1.542000000     1.587000000    -5.988000000
H     0.802000000     1.917000000    -5.264000000
C     3.723000000     2.019000000    -7.061000000
H     4.673000000     2.548000000    -7.055000000
C     3.358000000     1.178000000    -8.064000000
H     4.093000000     0.984000000    -8.840000000
C     2.105000000     0.573000000    -8.106000000
H     1.858000000    -0.066000000    -8.951000000
C     1.154000000     0.725000000    -7.035000000
O    -0.140000000     0.287000000    -7.276000000
C    -0.852000000    -0.280000000    -6.288000000
C    -2.025000000     0.289000000    -6.020000000
H    -2.402000000     1.107000000    -6.629000000
C    -2.722000000    -0.013000000    -4.892000000
O    -3.923000000     0.445000000    -4.551000000
C    -4.999000000    -0.244000000    -3.920000000
C    -5.543000000     0.250000000    -2.768000000
H    -5.200000000     1.204000000    -2.377000000
C    -5.631000000    -1.294000000    -4.574000000
H    -5.401000000    -1.589000000    -5.595000000
C    -6.711000000    -1.965000000    -4.000000000
H    -7.140000000    -2.809000000    -4.535000000
C    -7.205000000    -1.565000000    -2.769000000
H    -7.955000000    -2.134000000    -2.225000000
C    -6.557000000    -0.457000000    -2.124000000
O    -7.029000000    -0.113000000    -0.891000000
C    -6.298000000    -0.274000000     0.241000000
C    -6.526000000     0.634000000     1.340000000
H    -7.371000000     1.316000000     1.276000000
C    -5.807000000     0.580000000     2.584000000
O    -6.033000000     1.432000000     3.597000000
C    -5.099000000     1.726000000     4.579000000
C    -5.164000000     1.225000000     5.837000000
H    -5.982000000     0.575000000     6.138000000
C    -4.327000000     1.761000000     6.794000000
H    -4.435000000     1.499000000     7.843000000
C    -3.280000000     2.616000000     6.491000000
H    -2.480000000     2.896000000     7.171000000
C    -3.197000000     3.075000000     5.152000000
C    -4.143000000     2.724000000     4.240000000
H    -4.180000000     3.179000000     3.253000000
C    -2.621000000     1.113000000    -0.657000000
H    -3.618000000     0.862000000    -1.010000000
C    -1.618000000     0.121000000    -0.686000000
H    -2.018000000    -0.865000000    -0.906000000
C    -0.331000000     0.397000000    -0.214000000
H     0.402000000    -0.462000000    -0.148000000
C    -0.041000000     1.616000000     0.381000000
H     0.966000000     1.755000000     0.768000000
C    -0.996000000     2.582000000     0.486000000
H    -0.801000000     3.532000000     0.977000000
C    -2.273000000     2.390000000    -0.090000000
C    -3.249000000     3.501000000    -0.170000000
O    -2.849000000     4.644000000    -0.113000000
O    -4.444000000     3.259000000    -0.390000000
O    -0.211000000     7.947000000    -3.505000000
H    -0.977000000     8.521000000    -3.499000000
H    -0.495000000     7.164000000    -3.034000000
O    -5.702000000     4.646000000     1.523000000
H    -6.581000000     4.287000000     1.399000000
H    -5.157000000     4.167000000     0.899000000
O    -2.956000000     7.096000000     0.710000000
H    -2.048000000     7.221000000     0.437000000
H    -3.059000000     6.147000000     0.775000000
O    -4.746000000     5.777000000     3.745000000
H    -5.160000000     5.527000000     2.919000000
H    -4.668000000     6.730000000     3.696000000
O     0.107000000     4.504000000    -4.201000000
H     0.709000000     3.791000000    -3.987000000
H     0.372000000     4.789000000    -5.075000000
O    -6.871000000     3.168000000    -1.045000000
H    -5.971000000     3.490000000    -1.090000000
H    -6.783000000     2.240000000    -0.828000000
O    -5.771000000     2.608000000    -5.811000000
H    -5.927000000     1.670000000    -5.921000000
H    -4.819000000     2.699000000    -5.853000000
O    -1.358000000     9.645000000    -0.902000000
H    -1.219000000     9.606000000    -1.849000000
H    -1.041000000     8.803000000    -0.579000000
O    -6.688000000     4.916000000    -4.037000000
H    -6.045000000     5.248000000    -3.411000000
H    -6.171000000     4.676000000    -4.806000000
O    -3.451000000     7.173000000    -4.796000000
H    -4.156000000     6.648000000    -5.176000000
H    -3.720000000     7.312000000    -3.888000000
O    -4.006000000     7.818000000    -2.168000000
H    -4.725000000     8.448000000    -2.117000000
H    -3.879000000     7.526000000    -1.266000000
O    -5.388000000     8.322000000     0.679000000
H    -5.879000000     7.533000000     0.450000000
H    -4.474000000     8.041000000     0.690000000
O    -7.206000000     6.348000000    -1.178000000
H    -6.977000000     5.463000000    -1.462000000
H    -8.134000000     6.294000000    -0.953000000
O    -2.425000000     7.350000000     3.800000000
H    -2.730000000     7.481000000     2.903000000
H    -2.843000000     6.535000000     4.079000000
O    -4.597000000     5.197000000    -2.157000000
H    -4.044000000     5.830000000    -1.698000000
H    -4.733000000     4.493000000    -1.522000000
O    -0.310000000     7.530000000     0.048000000
H    -0.442000000     6.750000000    -0.491000000
H     0.641000000     7.621000000     0.107000000
O    -2.760000000     3.485000000    -5.581000000
H    -2.291000000     3.110000000    -4.836000000
H    -2.616000000     4.429000000    -5.503000000
O    -8.799000000     3.252000000    -2.956000000
H    -8.462000000     3.209000000    -2.061000000
H    -8.123000000     3.721000000    -3.445000000
O    -0.988000000     5.653000000    -1.950000000
H    -0.595000000     5.245000000    -2.721000000
H    -1.564000000     4.979000000    -1.589000000
