215
-1445.20041
C    -4.240000000     2.496000000     2.038000000
H    -4.556000000     2.864000000     1.065000000
C    -2.920000000     2.846000000     2.481000000
C    -2.474000000     2.486000000     3.696000000
H    -1.471000000     2.726000000     4.040000000
C    -2.020000000     3.434000000     1.442000000
O    -2.694000000     4.178000000     0.385000000
H    -1.477000000     2.563000000     1.049000000
O    -1.071000000     4.336000000     2.159000000
C     0.253000000     4.159000000     1.815000000
C     1.077000000     3.367000000     2.634000000
H     0.626000000     2.856000000     3.481000000
C     2.430000000     3.280000000     2.389000000
O     3.145000000     2.339000000     3.119000000
C     2.936000000     3.752000000     1.122000000
C     4.357000000     3.405000000     0.760000000
H     4.677000000     4.216000000     0.102000000
C     4.444000000     2.120000000    -0.039000000
C     4.318000000     2.173000000    -1.417000000
H     4.295000000     3.160000000    -1.871000000
H     5.004000000     3.515000000     1.632000000
C     2.083000000     4.568000000     0.342000000
H     2.589000000     5.109000000    -0.454000000
C     0.749000000     4.779000000     0.650000000
C    -0.146000000     5.573000000    -0.336000000
H     0.431000000     6.354000000    -0.836000000
H    -0.929000000     6.072000000     0.239000000
C    -0.910000000     4.615000000    -1.266000000
C    -0.367000000     4.356000000    -2.505000000
H     0.599000000     4.770000000    -2.781000000
C    -2.176000000     4.120000000    -0.896000000
C    -2.819000000     3.183000000    -1.705000000
H    -3.632000000     2.563000000    -1.337000000
C    -2.300000000     2.940000000    -2.998000000
O    -2.849000000     1.969000000    -3.757000000
C    -2.072000000     0.767000000    -3.636000000
C    -3.012000000    -0.430000000    -3.350000000
C    -2.879000000    -1.583000000    -4.141000000
H    -2.197000000    -1.689000000    -4.980000000
C    -3.941000000    -0.448000000    -2.222000000
H    -3.914000000     0.335000000    -1.469000000
O    -1.338000000     0.583000000    -4.858000000
H    -1.388000000     0.922000000    -2.788000000
C    -1.047000000     3.543000000    -3.413000000
C    -0.399000000     3.168000000    -4.697000000
H     0.180000000     3.989000000    -5.126000000
H    -1.177000000     3.114000000    -5.462000000
C     0.554000000     1.996000000    -4.611000000
C     1.907000000     2.053000000    -4.268000000
H     2.453000000     2.983000000    -4.126000000
C     0.008000000     0.689000000    -4.719000000
C     0.778000000    -0.466000000    -4.518000000
H     0.263000000    -1.420000000    -4.587000000
C     2.137000000    -0.389000000    -4.274000000
O     2.774000000    -1.540000000    -3.997000000
C     2.919000000    -1.909000000    -2.558000000
C     2.492000000    -3.353000000    -2.175000000
C     1.665000000    -4.027000000    -3.035000000
H     1.505000000    -3.702000000    -4.060000000
C     2.618000000    -3.878000000    -0.883000000
H     3.138000000    -3.285000000    -0.136000000
O     4.179000000    -1.464000000    -2.169000000
H     2.136000000    -1.289000000    -2.097000000
C     2.651000000     0.880000000    -4.093000000
C     4.082000000     1.037000000    -3.666000000
H     4.578000000     1.901000000    -4.113000000
H     4.613000000     0.142000000    -3.998000000
C     4.269000000     0.990000000    -2.174000000
C     4.264000000    -0.249000000    -1.523000000
C     4.362000000    -0.253000000    -0.116000000
H     4.434000000    -1.174000000     0.458000000
C     4.532000000     0.941000000     0.615000000
O     4.602000000     0.819000000     2.034000000
C     3.337000000     0.980000000     2.618000000
H     2.625000000     0.783000000     1.804000000
C     3.126000000     0.049000000     3.837000000
C     2.271000000     0.394000000     4.898000000
H     1.712000000     1.324000000     4.966000000
C     3.658000000    -1.256000000     3.767000000
H     4.206000000    -1.578000000     2.885000000
C     3.529000000    -2.172000000     4.792000000
O     4.015000000    -3.461000000     4.758000000
C     2.728000000    -1.757000000     5.905000000
H     2.587000000    -2.394000000     6.775000000
C     2.059000000    -0.561000000     5.889000000
O     1.224000000    -0.345000000     6.984000000
C     0.366000000     0.690000000     7.135000000
C    -0.798000000     0.503000000     6.416000000
H    -0.963000000    -0.413000000     5.855000000
C     0.687000000     1.872000000     7.801000000
H     1.645000000     1.823000000     8.312000000
C    -0.292000000     2.791000000     8.104000000
H    -0.105000000     3.640000000     8.757000000
C    -1.502000000     2.642000000     7.393000000
H    -2.327000000     3.349000000     7.369000000
C    -1.722000000     1.553000000     6.508000000
O    -2.935000000     1.489000000     5.847000000
C    -3.328000000     1.778000000     4.560000000
C    -4.634000000     1.518000000     4.182000000
H    -5.220000000     1.048000000     4.968000000
C    -5.080000000     1.840000000     2.900000000
O    -6.358000000     1.504000000     2.454000000
C    -6.734000000     1.035000000     1.226000000
C    -6.066000000    -0.128000000     0.714000000
H    -5.254000000    -0.547000000     1.303000000
C    -7.730000000     1.643000000     0.468000000
H    -8.253000000     2.492000000     0.899000000
C    -8.055000000     1.185000000    -0.754000000
H    -8.902000000     1.596000000    -1.297000000
C    -7.366000000     0.096000000    -1.334000000
H    -7.761000000    -0.315000000    -2.260000000
C    -6.385000000    -0.577000000    -0.556000000
O    -5.776000000    -1.669000000    -1.093000000
C    -4.830000000    -1.525000000    -2.045000000
C    -4.644000000    -2.625000000    -2.805000000
H    -5.375000000    -3.414000000    -2.652000000
C    -3.757000000    -2.669000000    -3.927000000
O    -3.611000000    -3.794000000    -4.602000000
C    -2.343000000    -4.224000000    -4.927000000
C    -1.559000000    -4.953000000    -4.010000000
H    -1.912000000    -5.162000000    -3.003000000
C    -1.906000000    -3.882000000    -6.220000000
H    -2.539000000    -3.262000000    -6.850000000
C    -0.785000000    -4.532000000    -6.692000000
H    -0.552000000    -4.456000000    -7.751000000
C     0.035000000    -5.257000000    -5.880000000
H     0.910000000    -5.772000000    -6.267000000
C    -0.349000000    -5.394000000    -4.541000000
O     0.484000000    -6.043000000    -3.702000000
C     1.149000000    -5.333000000    -2.712000000
C     1.281000000    -5.859000000    -1.417000000
H     0.839000000    -6.793000000    -1.080000000
C     1.995000000    -5.065000000    -0.496000000
O     1.977000000    -5.409000000     0.842000000
C     3.054000000    -5.199000000     1.702000000
C     4.228000000    -5.882000000     1.491000000
H     4.150000000    -6.685000000     0.762000000
C     5.285000000    -5.921000000     2.389000000
H     6.147000000    -6.562000000     2.225000000
C     5.285000000    -5.022000000     3.451000000
H     6.140000000    -4.800000000     4.084000000
C     4.161000000    -4.176000000     3.587000000
C     3.029000000    -4.363000000     2.779000000
H     2.067000000    -3.886000000     2.951000000
C    -0.478000000    -3.089000000    -0.406000000
H    -0.831000000    -3.974000000    -0.929000000
C    -0.354000000    -1.854000000    -1.033000000
H    -0.442000000    -1.756000000    -2.112000000
C     0.100000000    -0.756000000    -0.259000000
H     0.271000000     0.192000000    -0.682000000
C     0.408000000    -0.875000000     1.062000000
H     0.809000000     0.007000000     1.555000000
C     0.051000000    -1.995000000     1.729000000
H     0.059000000    -2.107000000     2.810000000
C    -0.433000000    -3.162000000     1.023000000
C    -0.860000000    -4.394000000     1.846000000
O    -0.628000000    -4.445000000     3.005000000
O    -1.560000000    -5.196000000     1.243000000
O     3.418000000    -7.141000000     5.446000000
H     2.558000000    -6.895000000     5.106000000
H     3.797000000    -7.693000000     4.763000000
O     1.120000000    -6.008000000     4.396000000
H     0.656000000    -6.244000000     5.199000000
H     0.530000000    -5.401000000     3.948000000
O    -1.583000000    -3.592000000     5.277000000
H    -1.092000000    -3.903000000     6.037000000
H    -1.090000000    -3.917000000     4.523000000
O    -4.252000000    -7.962000000     0.813000000
H    -4.311000000    -7.813000000     1.756000000
H    -3.515000000    -7.420000000     0.530000000
O    -3.872000000    -2.408000000     1.129000000
H    -4.203000000    -3.306000000     1.134000000
H    -3.303000000    -2.367000000     0.360000000
O    -3.315000000    -1.973000000     4.087000000
H    -3.417000000    -2.091000000     3.143000000
H    -2.584000000    -2.545000000     4.322000000
O    -4.181000000    -4.897000000     5.859000000
H    -4.916000000    -4.902000000     5.246000000
H    -3.404000000    -4.881000000     5.300000000
O    -0.490000000    -9.231000000    -1.168000000
H    -0.699000000   -10.161000000    -1.081000000
H     0.450000000    -9.179000000    -0.996000000
O    -4.573000000    -4.987000000     1.445000000
H    -3.626000000    -5.083000000     1.342000000
H    -4.813000000    -5.655000000     2.088000000
O    -2.961000000    -1.986000000     7.189000000
H    -2.267000000    -2.579000000     6.902000000
H    -3.104000000    -1.405000000     6.442000000
O    -6.050000000    -2.916000000     3.945000000
H    -6.502000000    -2.319000000     3.349000000
H    -5.140000000    -2.618000000     3.937000000
O    -1.857000000    -9.198000000     3.656000000
H    -1.644000000    -8.943000000     4.554000000
H    -1.196000000    -8.760000000     3.120000000
O     0.082000000    -7.518000000     1.988000000
H    -0.521000000    -6.836000000     1.692000000
H     0.802000000    -7.040000000     2.398000000
O    -5.093000000    -7.378000000     3.331000000
H    -4.171000000    -7.161000000     3.467000000
H    -5.209000000    -8.219000000     3.773000000
O    -6.909000000    -5.201000000    -0.329000000
H    -6.996000000    -4.248000000    -0.310000000
H    -6.075000000    -5.374000000     0.109000000
O    -2.510000000    -6.354000000     3.892000000
H    -1.971000000    -5.842000000     3.289000000
H    -1.985000000    -6.413000000     4.691000000
O    -2.201000000    -6.775000000    -0.652000000
H    -1.518000000    -7.440000000    -0.744000000
H    -1.853000000    -6.162000000    -0.005000000
O     2.137000000    -9.612000000     2.476000000
H     1.329000000    -9.228000000     2.135000000
H     2.678000000    -9.760000000     1.701000000
O    -1.080000000    -6.542000000     6.147000000
H    -0.884000000    -5.881000000     6.811000000
H    -0.766000000    -7.363000000     6.525000000
