215
-1470.80845
C     4.179000000     2.227000000    -2.638000000
H     4.243000000     1.318000000    -3.230000000
C     4.300000000     2.107000000    -1.249000000
C     4.254000000     3.253000000    -0.429000000
H     4.360000000     3.049000000     0.634000000
C     4.258000000     0.715000000    -0.682000000
O     4.648000000    -0.325000000    -1.593000000
H     3.211000000     0.524000000    -0.406000000
O     5.077000000     0.671000000     0.472000000
C     4.551000000    -0.027000000     1.550000000
C     3.740000000     0.661000000     2.501000000
H     3.846000000     1.741000000     2.555000000
C     3.086000000    -0.015000000     3.528000000
O     2.324000000     0.775000000     4.372000000
C     2.994000000    -1.418000000     3.456000000
C     2.158000000    -2.191000000     4.480000000
H     2.649000000    -3.150000000     4.660000000
C     0.774000000    -2.326000000     3.990000000
C     0.274000000    -3.471000000     3.414000000
H     0.957000000    -4.293000000     3.216000000
H     2.124000000    -1.687000000     5.448000000
C     3.691000000    -2.139000000     2.434000000
H     3.692000000    -3.225000000     2.419000000
C     4.501000000    -1.459000000     1.523000000
C     5.074000000    -2.266000000     0.374000000
H     5.291000000    -3.238000000     0.822000000
H     5.988000000    -1.746000000     0.077000000
C     4.098000000    -2.426000000    -0.711000000
C     3.236000000    -3.529000000    -0.781000000
H     3.183000000    -4.291000000    -0.008000000
C     3.982000000    -1.453000000    -1.670000000
C     3.096000000    -1.595000000    -2.735000000
H     3.086000000    -0.808000000    -3.485000000
C     2.242000000    -2.697000000    -2.794000000
O     1.267000000    -2.760000000    -3.759000000
C    -0.105000000    -2.546000000    -3.461000000
C    -0.788000000    -1.729000000    -4.487000000
C    -2.184000000    -1.770000000    -4.615000000
H    -2.739000000    -2.501000000    -4.031000000
C    -0.073000000    -0.603000000    -5.005000000
H     0.960000000    -0.436000000    -4.710000000
O    -0.662000000    -3.819000000    -3.299000000
H    -0.220000000    -2.105000000    -2.459000000
C     2.282000000    -3.670000000    -1.738000000
C     1.482000000    -4.934000000    -1.796000000
H     2.016000000    -5.768000000    -1.335000000
H     1.343000000    -5.429000000    -2.760000000
C     0.095000000    -4.718000000    -1.272000000
C    -0.100000000    -4.911000000     0.075000000
H     0.781000000    -5.248000000     0.615000000
C    -0.960000000    -4.188000000    -2.003000000
C    -2.228000000    -3.991000000    -1.432000000
H    -3.078000000    -3.731000000    -2.058000000
C    -2.389000000    -4.115000000    -0.064000000
O    -3.490000000    -3.684000000     0.545000000
C    -3.322000000    -2.428000000     1.221000000
C    -4.483000000    -1.464000000     0.924000000
C    -5.042000000    -1.417000000    -0.333000000
H    -4.726000000    -2.158000000    -1.062000000
C    -4.689000000    -0.466000000     1.896000000
H    -4.223000000    -0.540000000     2.876000000
O    -3.231000000    -2.626000000     2.721000000
H    -2.362000000    -2.012000000     0.882000000
C    -1.297000000    -4.592000000     0.675000000
C    -1.410000000    -4.886000000     2.176000000
H    -0.831000000    -5.738000000     2.538000000
H    -2.457000000    -5.154000000     2.331000000
C    -0.970000000    -3.600000000     2.892000000
C    -1.916000000    -2.601000000     3.221000000
C    -1.445000000    -1.408000000     3.784000000
H    -2.132000000    -0.567000000     3.725000000
C    -0.126000000    -1.278000000     4.211000000
O     0.161000000    -0.108000000     4.763000000
C     0.928000000     0.894000000     4.003000000
H     0.719000000     0.759000000     2.932000000
C     0.441000000     2.277000000     4.328000000
C     1.212000000     3.365000000     4.071000000
H     2.268000000     3.257000000     3.839000000
C    -0.879000000     2.498000000     4.732000000
H    -1.461000000     1.627000000     5.023000000
C    -1.391000000     3.781000000     4.826000000
O    -2.742000000     3.962000000     5.134000000
C    -0.594000000     4.886000000     4.438000000
H    -0.992000000     5.897000000     4.460000000
C     0.736000000     4.676000000     4.162000000
O     1.535000000     5.818000000     3.952000000
C     2.731000000     5.709000000     3.217000000
C     2.775000000     5.761000000     1.802000000
H     1.830000000     5.737000000     1.266000000
C     3.934000000     5.544000000     3.957000000
H     3.909000000     5.573000000     5.043000000
C     5.151000000     5.335000000     3.286000000
H     6.052000000     5.114000000     3.852000000
C     5.190000000     5.459000000     1.892000000
H     6.116000000     5.386000000     1.328000000
C     4.038000000     5.608000000     1.160000000
O     4.048000000     5.631000000    -0.286000000
C     4.107000000     4.460000000    -1.010000000
C     3.952000000     4.630000000    -2.388000000
H     3.887000000     5.640000000    -2.786000000
C     3.936000000     3.505000000    -3.200000000
O     3.693000000     3.680000000    -4.531000000
C     3.277000000     2.577000000    -5.284000000
C     1.895000000     2.416000000    -5.506000000
H     1.143000000     3.176000000    -5.310000000
C     4.173000000     1.749000000    -5.894000000
H     5.235000000     1.796000000    -5.668000000
C     3.741000000     0.717000000    -6.754000000
H     4.438000000     0.067000000    -7.276000000
C     2.353000000     0.523000000    -6.904000000
H     1.946000000    -0.286000000    -7.504000000
C     1.468000000     1.424000000    -6.307000000
O     0.118000000     1.250000000    -6.444000000
C    -0.650000000     0.189000000    -5.973000000
C    -2.039000000     0.030000000    -6.249000000
H    -2.424000000     0.787000000    -6.928000000
C    -2.794000000    -0.911000000    -5.549000000
O    -4.089000000    -1.046000000    -5.865000000
C    -5.071000000    -1.376000000    -4.967000000
C    -5.147000000    -0.672000000    -3.740000000
H    -4.249000000    -0.189000000    -3.362000000
C    -6.219000000    -1.932000000    -5.431000000
H    -6.281000000    -2.270000000    -6.462000000
C    -7.397000000    -1.970000000    -4.688000000
H    -8.366000000    -2.288000000    -5.062000000
C    -7.486000000    -1.374000000    -3.431000000
H    -8.393000000    -1.472000000    -2.840000000
C    -6.347000000    -0.651000000    -2.999000000
O    -6.435000000     0.003000000    -1.856000000
C    -5.904000000    -0.334000000    -0.616000000
C    -6.209000000     0.614000000     0.374000000
H    -6.836000000     1.477000000     0.165000000
C    -5.654000000     0.520000000     1.660000000
O    -5.984000000     1.510000000     2.624000000
C    -5.250000000     1.715000000     3.793000000
C    -5.547000000     0.926000000     4.830000000
H    -6.253000000     0.103000000     4.746000000
C    -4.938000000     1.180000000     6.077000000
H    -5.320000000     0.522000000     6.854000000
C    -3.927000000     2.121000000     6.165000000
H    -3.479000000     2.229000000     7.150000000
C    -3.664000000     2.917000000     5.059000000
C    -4.319000000     2.746000000     3.873000000
H    -4.141000000     3.447000000     3.062000000
C    -1.631000000     1.062000000    -0.847000000
H    -2.445000000     1.256000000    -1.540000000
C    -1.394000000    -0.273000000    -0.607000000
H    -1.932000000    -1.102000000    -1.058000000
C    -0.264000000    -0.652000000     0.149000000
H    -0.056000000    -1.636000000     0.450000000
C     0.593000000     0.282000000     0.649000000
H     1.560000000    -0.007000000     1.053000000
C     0.330000000     1.668000000     0.395000000
H     1.019000000     2.402000000     0.805000000
C    -0.835000000     2.084000000    -0.302000000
C    -1.218000000     3.546000000    -0.571000000
O    -0.690000000     4.452000000     0.012000000
O    -2.153000000     3.770000000    -1.309000000
O    -3.134000000     5.841000000     0.208000000
H    -3.770000000     5.700000000    -0.494000000
H    -2.474000000     5.161000000     0.072000000
O    -0.499000000     7.065000000     1.362000000
H     0.022000000     7.082000000     0.559000000
H    -0.995000000     6.248000000     1.309000000
O    -3.850000000     6.115000000     3.775000000
H    -4.663000000     5.987000000     3.285000000
H    -3.759000000     5.319000000     4.299000000
O     1.418000000     5.371000000    -3.739000000
H     1.935000000     4.566000000    -3.704000000
H     1.378000000     5.590000000    -4.670000000
O    -4.555000000     2.986000000    -1.805000000
H    -3.638000000     3.252000000    -1.746000000
H    -5.023000000     3.612000000    -1.252000000
O     1.738000000     8.340000000    -4.201000000
H     2.608000000     7.996000000    -4.400000000
H     1.226000000     7.569000000    -3.954000000
O    -4.978000000     4.887000000    -4.191000000
H    -5.195000000     5.479000000    -4.911000000
H    -4.048000000     4.695000000    -4.312000000
O    -5.437000000     6.579000000    -2.041000000
H    -4.877000000     7.349000000    -2.139000000
H    -5.476000000     6.198000000    -2.918000000
O    -2.635000000     8.080000000    -4.579000000
H    -3.239000000     8.711000000    -4.189000000
H    -2.244000000     7.629000000    -3.830000000
O    -2.558000000     8.622000000     0.314000000
H    -2.864000000     7.726000000     0.171000000
H    -1.850000000     8.534000000     0.953000000
O    -6.434000000     5.256000000     2.607000000
H    -5.930000000     5.021000000     1.828000000
H    -7.325000000     5.389000000     2.284000000
O    -4.848000000     8.292000000     1.954000000
H    -5.642000000     8.024000000     1.491000000
H    -4.174000000     8.321000000     1.275000000
O    -6.521000000     5.042000000    -0.240000000
H    -6.206000000     5.694000000    -0.865000000
H    -7.264000000     4.628000000    -0.679000000
O    -0.983000000     8.579000000     3.521000000
H    -0.845000000     7.833000000     2.937000000
H    -1.739000000     8.330000000     4.053000000
O    -1.503000000     6.072000000    -2.794000000
H    -0.601000000     6.287000000    -2.557000000
H    -1.801000000     5.489000000    -2.095000000
O     2.470000000     8.583000000    -0.351000000
H     1.794000000     8.050000000    -0.770000000
H     3.127000000     7.952000000    -0.059000000
O    -1.818000000     4.945000000    -5.481000000
H    -1.692000000     5.249000000    -4.583000000
H    -1.144000000     5.401000000    -5.985000000
O    -5.971000000     2.326000000    -4.155000000
H    -5.742000000     2.092000000    -3.256000000
H    -5.536000000     3.166000000    -4.302000000
O     0.762000000     6.305000000    -1.170000000
H     1.114000000     5.963000000    -1.992000000
H     0.381000000     5.542000000    -0.736000000
