215
-1457.82241
C    -3.486000000     1.858000000     1.939000000
H    -3.597000000     1.720000000     0.867000000
C    -2.500000000     2.710000000     2.399000000
C    -2.157000000     2.750000000     3.733000000
H    -1.238000000     3.240000000     4.045000000
C    -1.541000000     3.361000000     1.384000000
O    -2.293000000     3.952000000     0.292000000
H    -0.917000000     2.511000000     1.072000000
O    -0.707000000     4.397000000     2.040000000
C     0.622000000     4.260000000     1.594000000
C     1.518000000     3.601000000     2.473000000
H     1.023000000     3.299000000     3.393000000
C     2.839000000     3.350000000     2.057000000
O     3.483000000     2.517000000     2.862000000
C     3.338000000     3.820000000     0.893000000
C     4.675000000     3.324000000     0.486000000
H     5.082000000     4.027000000    -0.243000000
C     4.532000000     1.986000000    -0.218000000
C     4.241000000     1.893000000    -1.574000000
H     4.151000000     2.809000000    -2.153000000
H     5.332000000     3.225000000     1.353000000
C     2.443000000     4.356000000    -0.021000000
H     2.871000000     4.739000000    -0.944000000
C     1.068000000     4.684000000     0.263000000
C     0.153000000     5.525000000    -0.617000000
H     0.841000000     6.069000000    -1.267000000
H    -0.536000000     6.206000000    -0.114000000
C    -0.675000000     4.433000000    -1.407000000
C    -0.254000000     4.251000000    -2.748000000
H     0.583000000     4.865000000    -3.071000000
C    -1.826000000     3.790000000    -0.980000000
C    -2.541000000     3.032000000    -1.867000000
H    -3.512000000     2.707000000    -1.501000000
C    -1.999000000     2.663000000    -3.115000000
O    -2.656000000     1.781000000    -3.907000000
C    -2.179000000     0.485000000    -3.746000000
C    -3.330000000    -0.493000000    -3.605000000
C    -3.136000000    -1.848000000    -3.937000000
H    -2.186000000    -2.272000000    -4.250000000
C    -4.552000000    -0.101000000    -3.039000000
H    -4.718000000     0.910000000    -2.675000000
O    -1.406000000     0.153000000    -4.945000000
H    -1.617000000     0.499000000    -2.801000000
C    -0.839000000     3.289000000    -3.574000000
C    -0.126000000     2.913000000    -4.839000000
H     0.532000000     3.750000000    -5.081000000
H    -0.845000000     2.781000000    -5.651000000
C     0.643000000     1.573000000    -4.774000000
C     1.963000000     1.739000000    -4.460000000
H     2.422000000     2.721000000    -4.377000000
C    -0.010000000     0.352000000    -4.861000000
C     0.729000000    -0.819000000    -4.704000000
H     0.244000000    -1.768000000    -4.492000000
C     2.027000000    -0.688000000    -4.296000000
O     2.830000000    -1.781000000    -3.978000000
C     2.867000000    -2.024000000    -2.549000000
C     2.450000000    -3.457000000    -2.262000000
C     1.761000000    -4.318000000    -3.200000000
H     1.739000000    -4.170000000    -4.277000000
C     2.541000000    -3.857000000    -0.960000000
H     2.824000000    -3.171000000    -0.166000000
O     4.132000000    -1.774000000    -1.896000000
H     2.103000000    -1.425000000    -2.031000000
C     2.640000000     0.522000000    -4.181000000
C     4.102000000     0.627000000    -3.642000000
H     4.559000000     1.549000000    -4.008000000
H     4.598000000    -0.284000000    -3.982000000
C     4.160000000     0.634000000    -2.144000000
C     4.342000000    -0.543000000    -1.343000000
C     4.485000000    -0.463000000     0.038000000
H     4.607000000    -1.333000000     0.678000000
C     4.655000000     0.794000000     0.575000000
O     4.595000000     0.785000000     1.943000000
C     3.350000000     1.123000000     2.555000000
H     2.532000000     0.909000000     1.852000000
C     3.036000000     0.266000000     3.774000000
C     2.671000000     0.843000000     4.976000000
H     2.576000000     1.920000000     5.089000000
C     3.312000000    -1.084000000     3.728000000
H     3.658000000    -1.561000000     2.815000000
C     2.854000000    -1.894000000     4.829000000
O     2.980000000    -3.290000000     4.874000000
C     2.271000000    -1.306000000     5.909000000
H     1.863000000    -1.826000000     6.771000000
C     2.201000000     0.057000000     5.976000000
O     1.633000000     0.565000000     7.157000000
C     0.544000000     1.380000000     7.304000000
C    -0.543000000     1.379000000     6.454000000
H    -0.470000000     0.844000000     5.510000000
C     0.429000000     2.099000000     8.485000000
H     1.198000000     2.109000000     9.253000000
C    -0.554000000     3.103000000     8.674000000
H    -0.600000000     3.682000000     9.594000000
C    -1.613000000     3.094000000     7.779000000
H    -2.420000000     3.818000000     7.852000000
C    -1.620000000     2.191000000     6.662000000
O    -2.799000000     2.151000000     5.990000000
C    -2.990000000     2.052000000     4.601000000
C    -4.146000000     1.299000000     4.206000000
H    -4.785000000     0.795000000     4.927000000
C    -4.367000000     1.216000000     2.806000000
O    -5.378000000     0.377000000     2.371000000
C    -6.070000000     0.604000000     1.208000000
C    -5.917000000    -0.204000000     0.113000000
H    -5.228000000    -1.041000000     0.197000000
C    -6.803000000     1.751000000     1.118000000
H    -6.833000000     2.433000000     1.964000000
C    -7.565000000     2.037000000     0.025000000
H    -8.194000000     2.923000000    -0.015000000
C    -7.620000000     1.131000000    -1.068000000
H    -8.229000000     1.286000000    -1.955000000
C    -6.730000000     0.046000000    -0.991000000
O    -6.718000000    -0.753000000    -2.113000000
C    -5.511000000    -1.083000000    -2.699000000
C    -5.302000000    -2.451000000    -2.974000000
H    -5.983000000    -3.259000000    -2.719000000
C    -4.123000000    -2.800000000    -3.627000000
O    -3.896000000    -4.167000000    -3.704000000
C    -2.873000000    -4.816000000    -4.343000000
C    -1.744000000    -5.103000000    -3.647000000
H    -1.588000000    -4.621000000    -2.685000000
C    -2.968000000    -5.125000000    -5.681000000
H    -3.920000000    -4.805000000    -6.099000000
C    -1.888000000    -5.683000000    -6.414000000
H    -1.992000000    -5.784000000    -7.492000000
C    -0.785000000    -6.073000000    -5.619000000
H    -0.009000000    -6.732000000    -6.000000000
C    -0.706000000    -5.794000000    -4.258000000
O     0.429000000    -6.231000000    -3.554000000
C     1.245000000    -5.520000000    -2.745000000
C     1.252000000    -5.900000000    -1.440000000
H     0.786000000    -6.776000000    -0.996000000
C     2.010000000    -5.076000000    -0.548000000
O     2.066000000    -5.460000000     0.761000000
C     2.954000000    -5.091000000     1.725000000
C     4.272000000    -5.222000000     1.405000000
H     4.553000000    -5.736000000     0.490000000
C     5.229000000    -4.795000000     2.331000000
H     6.288000000    -5.004000000     2.204000000
C     4.732000000    -4.145000000     3.477000000
H     5.395000000    -3.819000000     4.274000000
C     3.398000000    -3.978000000     3.688000000
C     2.423000000    -4.454000000     2.818000000
H     1.373000000    -4.210000000     2.960000000
C    -0.753000000    -1.784000000    -0.797000000
H    -0.868000000    -2.603000000    -1.503000000
C     0.012000000    -0.658000000    -1.143000000
H     0.497000000    -0.493000000    -2.102000000
C     0.290000000     0.328000000    -0.244000000
H     1.002000000     1.045000000    -0.545000000
C    -0.229000000     0.169000000     1.080000000
H     0.012000000     0.844000000     1.897000000
C    -1.071000000    -0.838000000     1.377000000
H    -1.447000000    -1.001000000     2.383000000
C    -1.345000000    -1.883000000     0.470000000
C    -2.321000000    -2.997000000     0.775000000
O    -2.881000000    -2.900000000     1.845000000
O    -2.200000000    -4.017000000     0.193000000
O    -7.606000000    -6.739000000     1.966000000
H    -8.280000000    -6.753000000     2.645000000
H    -6.981000000    -6.078000000     2.262000000
O    -2.508000000    -4.683000000     4.169000000
H    -2.743000000    -4.307000000     5.017000000
H    -2.777000000    -4.023000000     3.530000000
O    -3.324000000    -1.670000000     4.115000000
H    -2.433000000    -1.381000000     4.312000000
H    -3.279000000    -1.982000000     3.211000000
O    -6.979000000    -4.579000000    -0.499000000
H    -7.266000000    -3.780000000    -0.056000000
H    -6.528000000    -5.081000000     0.179000000
O    -3.813000000    -5.637000000    -1.192000000
H    -3.194000000    -5.192000000    -0.613000000
H    -3.998000000    -5.000000000    -1.881000000
O    -5.970000000    -2.767000000     3.397000000
H    -5.106000000    -2.460000000     3.672000000
H    -6.301000000    -3.255000000     4.151000000
O    -1.686000000    -8.071000000    -0.100000000
H    -1.250000000    -7.283000000     0.222000000
H    -2.517000000    -8.097000000     0.374000000
O    -4.134000000    -7.594000000     0.988000000
H    -4.398000000    -6.973000000     0.308000000
H    -4.476000000    -7.220000000     1.800000000
O     0.435000000    -4.118000000     5.825000000
H     1.389000000    -4.148000000     5.762000000
H     0.150000000    -4.996000000     5.573000000
O    -6.783000000    -0.468000000     4.909000000
H    -7.609000000    -0.670000000     4.470000000
H    -6.113000000    -0.632000000     4.245000000
O    -1.020000000    -1.617000000     5.530000000
H    -0.858000000    -1.376000000     6.442000000
H    -0.497000000    -2.406000000     5.394000000
O    -2.616000000    -7.373000000     4.663000000
H    -2.173000000    -6.526000000     4.708000000
H    -3.416000000    -7.199000000     4.167000000
O    -1.264000000    -5.810000000     1.891000000
H    -1.135000000    -5.059000000     1.312000000
H    -1.797000000    -5.470000000     2.610000000
O    -5.082000000    -6.897000000     3.569000000
H    -5.074000000    -6.015000000     3.199000000
H    -5.825000000    -6.897000000     4.172000000
O    -7.733000000    -2.477000000     1.341000000
H    -7.265000000    -2.536000000     2.175000000
H    -8.098000000    -1.593000000     1.333000000
O    -4.948000000    -4.760000000     1.660000000
H    -4.059000000    -4.452000000     1.485000000
H    -5.463000000    -3.960000000     1.764000000
O    -3.103000000    -7.726000000    -2.650000000
H    -3.354000000    -6.892000000    -2.254000000
H    -2.449000000    -8.088000000    -2.052000000
O     0.720000000    -7.508000000     2.540000000
H     0.465000000    -8.193000000     1.922000000
H     0.005000000    -6.872000000     2.502000000
O    -3.545000000    -2.534000000     6.564000000
H    -4.391000000    -2.935000000     6.761000000
H    -3.658000000    -2.150000000     5.694000000
