215
-1467.96574
C    -3.877000000     1.813000000     1.454000000
H    -4.040000000     2.029000000     0.401000000
C    -2.850000000     2.474000000     2.187000000
C    -2.646000000     2.090000000     3.514000000
H    -1.817000000     2.463000000     4.110000000
C    -1.834000000     3.365000000     1.366000000
O    -2.452000000     4.223000000     0.381000000
H    -1.219000000     2.656000000     0.791000000
O    -1.044000000     4.092000000     2.197000000
C     0.326000000     4.030000000     2.025000000
C     0.981000000     3.310000000     2.944000000
H     0.430000000     2.899000000     3.787000000
C     2.315000000     2.994000000     2.741000000
O     2.803000000     2.151000000     3.701000000
C     3.003000000     3.554000000     1.704000000
C     4.448000000     3.278000000     1.430000000
H     5.000000000     4.072000000     0.923000000
C     4.569000000     1.976000000     0.696000000
C     4.586000000     2.028000000    -0.724000000
H     4.555000000     2.969000000    -1.267000000
H     4.872000000     3.206000000     2.434000000
C     2.348000000     4.455000000     0.827000000
H     2.890000000     4.936000000     0.017000000
C     0.965000000     4.707000000     1.016000000
C     0.210000000     5.581000000     0.036000000
H     0.866000000     6.254000000    -0.520000000
H    -0.454000000     6.227000000     0.615000000
C    -0.574000000     4.773000000    -0.961000000
C     0.077000000     4.584000000    -2.201000000
H     1.007000000     5.055000000    -2.509000000
C    -1.831000000     4.197000000    -0.839000000
C    -2.521000000     3.470000000    -1.850000000
H    -3.535000000     3.094000000    -1.736000000
C    -1.764000000     3.201000000    -2.976000000
O    -2.284000000     2.266000000    -3.925000000
C    -1.757000000     0.925000000    -3.966000000
C    -2.878000000    -0.136000000    -4.114000000
C    -2.616000000    -1.410000000    -4.596000000
H    -1.586000000    -1.701000000    -4.786000000
C    -4.128000000     0.105000000    -3.722000000
H    -4.322000000     1.012000000    -3.156000000
O    -0.857000000     0.833000000    -5.011000000
H    -1.179000000     0.800000000    -3.038000000
C    -0.504000000     3.739000000    -3.179000000
C     0.237000000     3.561000000    -4.437000000
H     0.883000000     4.434000000    -4.556000000
H    -0.392000000     3.699000000    -5.319000000
C     1.075000000     2.250000000    -4.430000000
C     2.450000000     2.284000000    -4.041000000
H     2.975000000     3.204000000    -3.796000000
C     0.496000000     0.994000000    -4.772000000
C     1.174000000    -0.191000000    -4.471000000
H     0.700000000    -1.162000000    -4.591000000
C     2.446000000    -0.151000000    -3.889000000
O     2.952000000    -1.316000000    -3.444000000
C     2.883000000    -1.604000000    -1.965000000
C     2.368000000    -2.997000000    -1.746000000
C     1.896000000    -3.776000000    -2.833000000
H     2.003000000    -3.532000000    -3.887000000
C     2.176000000    -3.487000000    -0.464000000
H     2.719000000    -2.941000000     0.304000000
O     4.261000000    -1.490000000    -1.427000000
H     2.231000000    -0.885000000    -1.448000000
C     3.077000000     1.081000000    -3.620000000
C     4.516000000     0.985000000    -3.019000000
H     5.153000000     1.830000000    -3.291000000
H     5.013000000     0.153000000    -3.521000000
C     4.548000000     0.868000000    -1.482000000
C     4.611000000    -0.344000000    -0.783000000
C     4.482000000    -0.445000000     0.568000000
H     4.314000000    -1.417000000     1.024000000
C     4.459000000     0.707000000     1.347000000
O     4.341000000     0.578000000     2.698000000
C     3.065000000     0.791000000     3.268000000
H     2.366000000     0.489000000     2.474000000
C     2.756000000    -0.167000000     4.386000000
C     2.068000000     0.203000000     5.510000000
H     1.617000000     1.187000000     5.616000000
C     3.148000000    -1.478000000     4.237000000
H     3.681000000    -1.835000000     3.359000000
C     2.889000000    -2.414000000     5.297000000
O     3.312000000    -3.765000000     5.255000000
C     2.221000000    -2.053000000     6.458000000
H     1.910000000    -2.789000000     7.194000000
C     1.685000000    -0.767000000     6.459000000
O     0.993000000    -0.372000000     7.569000000
C    -0.219000000     0.312000000     7.461000000
C    -1.217000000     0.161000000     6.425000000
H    -1.078000000    -0.606000000     5.668000000
C    -0.437000000     1.404000000     8.319000000
H     0.369000000     1.516000000     9.040000000
C    -1.574000000     2.224000000     8.254000000
H    -1.776000000     3.088000000     8.881000000
C    -2.535000000     1.984000000     7.266000000
H    -3.453000000     2.565000000     7.229000000
C    -2.324000000     0.977000000     6.373000000
O    -3.308000000     0.715000000     5.448000000
C    -3.409000000     1.048000000     4.079000000
C    -4.467000000     0.506000000     3.326000000
H    -5.099000000    -0.166000000     3.900000000
C    -4.631000000     0.778000000     2.010000000
O    -5.470000000     0.043000000     1.218000000
C    -6.163000000     0.497000000     0.107000000
C    -6.139000000    -0.287000000    -1.042000000
H    -5.770000000    -1.309000000    -1.028000000
C    -6.838000000     1.748000000     0.036000000
H    -6.876000000     2.386000000     0.915000000
C    -7.413000000     2.218000000    -1.082000000
H    -8.110000000     3.051000000    -1.121000000
C    -7.283000000     1.456000000    -2.284000000
H    -7.727000000     1.739000000    -3.235000000
C    -6.583000000     0.263000000    -2.264000000
O    -6.454000000    -0.390000000    -3.459000000
C    -5.252000000    -0.803000000    -3.888000000
C    -4.941000000    -2.069000000    -4.445000000
H    -5.753000000    -2.781000000    -4.572000000
C    -3.636000000    -2.345000000    -4.758000000
O    -3.354000000    -3.583000000    -5.340000000
C    -2.123000000    -4.166000000    -5.547000000
C    -1.459000000    -4.667000000    -4.432000000
H    -1.854000000    -4.729000000    -3.421000000
C    -1.574000000    -4.127000000    -6.851000000
H    -2.167000000    -3.718000000    -7.665000000
C    -0.361000000    -4.790000000    -6.973000000
H     0.109000000    -4.815000000    -7.952000000
C     0.409000000    -5.228000000    -5.928000000
H     1.393000000    -5.666000000    -6.072000000
C    -0.174000000    -5.214000000    -4.645000000
O     0.633000000    -5.678000000    -3.620000000
C     1.185000000    -4.956000000    -2.609000000
C     1.058000000    -5.431000000    -1.291000000
H     0.484000000    -6.319000000    -1.037000000
C     1.627000000    -4.770000000    -0.231000000
O     1.432000000    -5.127000000     1.084000000
C     2.487000000    -5.137000000     1.915000000
C     3.535000000    -5.937000000     1.661000000
H     3.445000000    -6.624000000     0.824000000
C     4.602000000    -6.020000000     2.519000000
H     5.429000000    -6.710000000     2.376000000
C     4.576000000    -5.235000000     3.688000000
H     5.413000000    -5.270000000     4.380000000
C     3.481000000    -4.401000000     4.017000000
C     2.397000000    -4.379000000     3.108000000
H     1.473000000    -3.825000000     3.253000000
C    -0.826000000    -1.983000000    -0.260000000
H    -0.972000000    -2.805000000    -0.956000000
C    -0.071000000    -0.945000000    -0.721000000
H     0.219000000    -0.920000000    -1.768000000
C     0.261000000     0.095000000     0.097000000
H     0.739000000     0.923000000    -0.350000000
C    -0.102000000     0.092000000     1.408000000
H     0.112000000     0.995000000     1.974000000
C    -0.810000000    -0.992000000     1.947000000
H    -1.113000000    -0.928000000     2.989000000
C    -1.186000000    -2.054000000     1.113000000
C    -1.944000000    -3.186000000     1.765000000
O    -1.911000000    -3.430000000     2.949000000
O    -2.600000000    -3.922000000     1.031000000
O    -5.877000000    -4.798000000     5.402000000
H    -6.486000000    -5.537000000     5.384000000
H    -5.443000000    -4.825000000     4.549000000
O    -2.081000000    -7.310000000    -1.931000000
H    -1.909000000    -7.052000000    -1.025000000
H    -2.762000000    -6.706000000    -2.227000000
O    -1.316000000    -5.715000000     4.141000000
H    -1.938000000    -6.310000000     3.723000000
H    -1.497000000    -4.863000000     3.745000000
O    -3.533000000    -2.318000000     4.707000000
H    -4.217000000    -2.574000000     4.088000000
H    -2.716000000    -2.580000000     4.283000000
O    -7.571000000    -4.694000000    -1.643000000
H    -7.196000000    -5.575000000    -1.639000000
H    -7.368000000    -4.343000000    -0.776000000
O    -4.209000000    -5.608000000    -2.862000000
H    -3.919000000    -4.765000000    -2.514000000
H    -4.472000000    -5.418000000    -3.762000000
O    -5.850000000    -2.115000000     6.171000000
H    -4.915000000    -2.147000000     5.971000000
H    -6.172000000    -2.989000000     5.951000000
O    -4.464000000    -4.295000000     2.977000000
H    -5.182000000    -4.441000000     2.361000000
H    -3.683000000    -4.246000000     2.426000000
O    -3.861000000    -9.788000000     0.219000000
H    -4.128000000    -8.892000000     0.425000000
H    -4.328000000    -9.998000000    -0.589000000
O    -6.736000000    -4.148000000     1.124000000
H    -7.437000000    -4.785000000     1.258000000
H    -7.056000000    -3.348000000     1.541000000
O    -0.117000000    -3.907000000     6.601000000
H    -1.045000000    -4.088000000     6.454000000
H     0.329000000    -4.337000000     5.871000000
O    -5.213000000    -6.725000000     0.834000000
H    -5.642000000    -5.883000000     0.988000000
H    -4.279000000    -6.518000000     0.814000000
O    -2.087000000    -6.591000000     0.859000000
H    -2.094000000    -5.660000000     1.080000000
H    -1.229000000    -6.900000000     1.153000000
O    -5.873000000    -7.411000000    -1.833000000
H    -5.358000000    -6.705000000    -2.223000000
H    -5.581000000    -7.445000000    -0.922000000
O    -1.979000000    -9.739000000     2.256000000
H    -1.321000000    -9.047000000     2.193000000
H    -2.335000000    -9.812000000     1.371000000
O    -3.375000000    -3.476000000    -1.556000000
H    -3.611000000    -2.655000000    -1.125000000
H    -2.985000000    -4.008000000    -0.862000000
O     0.154000000    -8.109000000     1.801000000
H     0.702000000    -7.434000000     2.201000000
H     0.698000000    -8.478000000     1.105000000
O     0.078000000    -7.020000000     6.410000000
H    -0.512000000    -6.694000000     5.730000000
H     0.672000000    -7.612000000     5.949000000
O    -2.791000000    -4.440000000     6.547000000
H    -3.208000000    -3.661000000     6.178000000
H    -2.726000000    -5.048000000     5.811000000
