215
-1477.05967
C    -3.762000000     2.768000000     2.489000000
H    -4.069000000     3.501000000     1.748000000
C    -2.432000000     2.593000000     2.878000000
C    -2.096000000     1.643000000     3.891000000
H    -1.093000000     1.452000000     4.263000000
C    -1.333000000     3.309000000     2.079000000
O    -1.792000000     4.401000000     1.286000000
H    -0.950000000     2.589000000     1.340000000
O    -0.318000000     3.743000000     2.995000000
C     0.928000000     3.440000000     2.590000000
C     1.480000000     2.408000000     3.278000000
H     0.976000000     1.876000000     4.080000000
C     2.818000000     2.060000000     2.931000000
O     3.462000000     1.023000000     3.544000000
C     3.522000000     2.778000000     1.936000000
C     4.878000000     2.366000000     1.503000000
H     5.374000000     3.215000000     1.028000000
C     4.791000000     1.285000000     0.460000000
C     4.602000000     1.624000000    -0.821000000
H     4.456000000     2.686000000    -0.995000000
H     5.536000000     1.965000000     2.277000000
C     2.885000000     3.806000000     1.231000000
H     3.496000000     4.335000000     0.504000000
C     1.581000000     4.173000000     1.600000000
C     0.891000000     5.314000000     0.882000000
H     1.611000000     5.915000000     0.323000000
H     0.386000000     5.994000000     1.571000000
C    -0.076000000     4.883000000    -0.205000000
C     0.442000000     4.638000000    -1.433000000
H     1.520000000     4.738000000    -1.531000000
C    -1.411000000     4.623000000     0.021000000
C    -2.196000000     4.064000000    -1.055000000
H    -3.121000000     3.600000000    -0.720000000
C    -1.617000000     3.926000000    -2.307000000
O    -2.338000000     3.208000000    -3.268000000
C    -2.011000000     1.839000000    -3.410000000
C    -3.318000000     1.035000000    -3.331000000
C    -3.348000000    -0.201000000    -3.944000000
H    -2.502000000    -0.563000000    -4.523000000
C    -4.426000000     1.439000000    -2.613000000
H    -4.341000000     2.386000000    -2.085000000
O    -1.217000000     1.631000000    -4.637000000
H    -1.402000000     1.466000000    -2.573000000
C    -0.301000000     4.252000000    -2.512000000
C     0.259000000     4.078000000    -3.896000000
H     0.985000000     4.847000000    -4.167000000
H    -0.558000000     4.232000000    -4.604000000
C     0.848000000     2.716000000    -4.083000000
C     2.143000000     2.507000000    -3.645000000
H     2.778000000     3.323000000    -3.310000000
C     0.119000000     1.603000000    -4.516000000
C     0.618000000     0.328000000    -4.407000000
H    -0.035000000    -0.486000000    -4.711000000
C     1.951000000     0.164000000    -4.016000000
O     2.464000000    -1.148000000    -3.989000000
C     2.707000000    -1.763000000    -2.697000000
C     2.098000000    -3.167000000    -2.787000000
C     0.929000000    -3.505000000    -3.402000000
H     0.349000000    -2.775000000    -3.961000000
C     2.778000000    -4.140000000    -2.027000000
H     3.764000000    -3.951000000    -1.609000000
O     4.042000000    -1.700000000    -2.205000000
H     2.048000000    -1.300000000    -1.948000000
C     2.749000000     1.274000000    -3.637000000
C     4.197000000     1.068000000    -3.282000000
H     4.678000000     1.997000000    -3.595000000
H     4.521000000     0.248000000    -3.926000000
C     4.500000000     0.633000000    -1.807000000
C     4.369000000    -0.698000000    -1.398000000
C     4.644000000    -1.036000000    -0.080000000
H     4.505000000    -2.072000000     0.216000000
C     4.805000000    -0.060000000     0.894000000
O     4.806000000    -0.530000000     2.207000000
C     3.558000000    -0.291000000     2.891000000
H     2.836000000    -0.347000000     2.062000000
C     3.200000000    -1.485000000     3.752000000
C     2.367000000    -1.324000000     4.875000000
H     2.070000000    -0.383000000     5.331000000
C     3.497000000    -2.754000000     3.276000000
H     4.019000000    -2.874000000     2.330000000
C     3.082000000    -3.904000000     3.944000000
O     3.394000000    -5.164000000     3.460000000
C     2.291000000    -3.745000000     5.092000000
H     1.989000000    -4.569000000     5.733000000
C     1.862000000    -2.506000000     5.466000000
O     1.064000000    -2.350000000     6.592000000
C     0.142000000    -1.351000000     6.721000000
C    -1.015000000    -1.305000000     5.926000000
H    -1.174000000    -1.984000000     5.092000000
C     0.308000000    -0.395000000     7.751000000
H     1.177000000    -0.514000000     8.392000000
C    -0.543000000     0.660000000     7.940000000
H    -0.448000000     1.414000000     8.718000000
C    -1.646000000     0.744000000     7.120000000
H    -2.283000000     1.622000000     7.200000000
C    -1.909000000    -0.230000000     6.164000000
O    -3.038000000    -0.091000000     5.405000000
C    -3.172000000     0.837000000     4.394000000
C    -4.523000000     1.071000000     4.066000000
H    -5.322000000     0.492000000     4.522000000
C    -4.838000000     2.017000000     3.124000000
O    -6.143000000     2.254000000     2.804000000
C    -6.677000000     2.388000000     1.574000000
C    -6.368000000     1.489000000     0.538000000
H    -5.811000000     0.605000000     0.837000000
C    -7.541000000     3.505000000     1.293000000
H    -7.730000000     4.215000000     2.094000000
C    -8.108000000     3.702000000     0.041000000
H    -8.776000000     4.539000000    -0.144000000
C    -7.815000000     2.808000000    -0.978000000
H    -8.224000000     3.061000000    -1.953000000
C    -6.914000000     1.756000000    -0.763000000
O    -6.764000000     0.921000000    -1.847000000
C    -5.577000000     0.663000000    -2.566000000
C    -5.610000000    -0.601000000    -3.140000000
H    -6.584000000    -1.052000000    -3.315000000
C    -4.507000000    -1.020000000    -3.876000000
O    -4.602000000    -2.269000000    -4.486000000
C    -3.523000000    -2.911000000    -5.058000000
C    -2.714000000    -3.742000000    -4.237000000
H    -2.900000000    -3.758000000    -3.166000000
C    -3.294000000    -2.853000000    -6.403000000
H    -3.931000000    -2.170000000    -6.959000000
C    -2.186000000    -3.502000000    -6.997000000
H    -1.925000000    -3.375000000    -8.044000000
C    -1.454000000    -4.324000000    -6.155000000
H    -0.619000000    -4.915000000    -6.522000000
C    -1.590000000    -4.303000000    -4.752000000
O    -0.818000000    -5.151000000    -3.916000000
C     0.370000000    -4.796000000    -3.314000000
C     1.035000000    -5.787000000    -2.594000000
H     0.666000000    -6.804000000    -2.490000000
C     2.210000000    -5.435000000    -1.907000000
O     2.726000000    -6.335000000    -1.064000000
C     3.601000000    -5.968000000    -0.086000000
C     4.959000000    -6.157000000    -0.252000000
H     5.346000000    -6.408000000    -1.236000000
C     5.796000000    -5.977000000     0.872000000
H     6.851000000    -6.233000000     0.827000000
C     5.260000000    -5.549000000     2.110000000
H     5.916000000    -5.286000000     2.935000000
C     3.886000000    -5.461000000     2.227000000
C     3.029000000    -5.513000000     1.103000000
H     1.954000000    -5.428000000     1.235000000
C    -1.667000000    -1.086000000    -0.972000000
H    -2.042000000    -1.450000000    -1.925000000
C    -0.423000000    -0.377000000    -0.976000000
H     0.142000000    -0.305000000    -1.902000000
C     0.063000000     0.166000000     0.157000000
H     1.093000000     0.492000000     0.236000000
C    -0.500000000    -0.062000000     1.344000000
H    -0.051000000     0.166000000     2.307000000
C    -1.655000000    -0.877000000     1.434000000
H    -2.163000000    -1.062000000     2.377000000
C    -2.304000000    -1.285000000     0.267000000
C    -3.522000000    -2.181000000     0.305000000
O    -4.455000000    -1.946000000     1.035000000
O    -3.414000000    -3.264000000    -0.272000000
O    -5.526000000    -4.429000000    -1.373000000
H    -5.178000000    -4.944000000    -2.101000000
H    -4.757000000    -4.011000000    -0.986000000
O    -2.609000000    -6.434000000    -0.910000000
H    -3.318000000    -6.109000000    -0.355000000
H    -1.945000000    -5.745000000    -0.876000000
O    -6.867000000    -2.321000000     1.643000000
H    -7.164000000    -2.631000000     0.787000000
H    -5.988000000    -1.980000000     1.482000000
O    -1.820000000    -4.495000000     3.957000000
H    -1.626000000    -5.107000000     4.667000000
H    -2.628000000    -4.060000000     4.229000000
O    -8.390000000    -6.030000000     2.986000000
H    -8.983000000    -6.574000000     3.505000000
H    -7.979000000    -6.641000000     2.374000000
O    -4.492000000    -5.284000000     1.188000000
H    -4.042000000    -4.451000000     1.325000000
H    -5.217000000    -5.072000000     0.600000000
O    -6.835000000    -3.487000000     6.592000000
H    -6.929000000    -3.575000000     5.644000000
H    -7.299000000    -4.244000000     6.950000000
O    -4.048000000    -8.553000000    -2.006000000
H    -4.073000000    -9.261000000    -1.362000000
H    -3.593000000    -7.839000000    -1.559000000
O    -4.038000000    -3.311000000     6.263000000
H    -4.934000000    -3.154000000     6.563000000
H    -4.041000000    -3.039000000     5.346000000
O    -8.611000000    -5.209000000    -1.471000000
H    -7.914000000    -5.403000000    -2.098000000
H    -8.385000000    -5.724000000    -0.696000000
O    -7.664000000    -3.556000000     3.813000000
H    -7.786000000    -4.465000000     3.541000000
H    -7.451000000    -3.090000000     3.004000000
O    -0.767000000    -8.108000000     0.307000000
H    -0.377000000    -7.457000000     0.890000000
H    -1.537000000    -7.673000000    -0.059000000
O    -0.921000000    -5.806000000     1.608000000
H    -1.183000000    -5.360000000     2.413000000
H    -0.939000000    -5.123000000     0.938000000
O    -4.725000000    -7.750000000     2.126000000
H    -4.828000000    -6.864000000     1.780000000
H    -3.904000000    -7.721000000     2.619000000
O    -4.534000000    -2.605000000     3.652000000
H    -4.520000000    -2.484000000     2.702000000
H    -5.205000000    -1.996000000     3.961000000
O    -1.089000000    -4.285000000    -0.748000000
H    -1.929000000    -3.853000000    -0.592000000
H    -0.504000000    -3.579000000    -1.020000000
O    -7.563000000    -2.606000000    -1.061000000
H    -7.956000000    -3.412000000    -1.397000000
H    -6.691000000    -2.583000000    -1.455000000
O    -8.850000000    -0.677000000     0.472000000
H    -8.233000000    -0.605000000     1.200000000
H    -8.437000000    -1.295000000    -0.132000000
O    -7.797000000    -7.355000000     0.396000000
H    -7.762000000    -8.131000000     0.955000000
H    -7.232000000    -7.569000000    -0.346000000
