215
-1463.52425
C    -4.337000000     2.161000000     1.835000000
H    -4.548000000     2.682000000     0.905000000
C    -3.080000000     2.324000000     2.374000000
C    -2.686000000     1.596000000     3.513000000
H    -1.664000000     1.671000000     3.878000000
C    -2.004000000     3.042000000     1.587000000
O    -2.605000000     3.779000000     0.491000000
H    -1.317000000     2.276000000     1.197000000
O    -1.183000000     4.056000000     2.339000000
C     0.150000000     4.079000000     1.957000000
C     1.046000000     3.364000000     2.745000000
H     0.618000000     2.892000000     3.626000000
C     2.376000000     3.172000000     2.363000000
O     3.206000000     2.490000000     3.153000000
C     2.815000000     3.765000000     1.159000000
C     4.282000000     3.727000000     0.767000000
H     4.529000000     4.540000000     0.081000000
C     4.480000000     2.353000000     0.086000000
C     4.304000000     2.276000000    -1.337000000
H     4.119000000     3.226000000    -1.831000000
H     4.828000000     3.817000000     1.709000000
C     1.898000000     4.504000000     0.370000000
H     2.199000000     5.082000000    -0.500000000
C     0.602000000     4.717000000     0.803000000
C    -0.282000000     5.579000000     0.014000000
H     0.332000000     6.357000000    -0.445000000
H    -1.015000000     6.200000000     0.532000000
C    -0.923000000     4.671000000    -1.010000000
C    -0.326000000     4.508000000    -2.301000000
H     0.583000000     5.081000000    -2.463000000
C    -2.016000000     3.763000000    -0.710000000
C    -2.605000000     2.989000000    -1.708000000
H    -3.505000000     2.407000000    -1.531000000
C    -1.973000000     2.893000000    -2.935000000
O    -2.559000000     2.099000000    -3.844000000
C    -2.084000000     0.717000000    -3.767000000
C    -3.200000000    -0.359000000    -3.650000000
C    -2.974000000    -1.639000000    -4.130000000
H    -2.089000000    -1.832000000    -4.731000000
C    -4.391000000    -0.018000000    -2.963000000
H    -4.528000000     0.979000000    -2.553000000
O    -1.120000000     0.489000000    -4.835000000
H    -1.494000000     0.586000000    -2.848000000
C    -0.795000000     3.583000000    -3.256000000
C    -0.041000000     3.324000000    -4.558000000
H     0.501000000     4.218000000    -4.876000000
H    -0.810000000     3.244000000    -5.329000000
C     0.779000000     2.002000000    -4.548000000
C     2.140000000     2.031000000    -4.202000000
H     2.650000000     2.962000000    -3.967000000
C     0.217000000     0.735000000    -4.663000000
C     1.031000000    -0.440000000    -4.552000000
H     0.461000000    -1.365000000    -4.512000000
C     2.407000000    -0.371000000    -4.327000000
O     3.068000000    -1.503000000    -3.949000000
C     3.225000000    -1.682000000    -2.483000000
C     2.581000000    -2.938000000    -1.956000000
C     1.679000000    -3.676000000    -2.733000000
H     1.528000000    -3.358000000    -3.762000000
C     2.808000000    -3.292000000    -0.644000000
H     3.380000000    -2.640000000     0.011000000
O     4.560000000    -1.372000000    -1.977000000
H     2.624000000    -0.923000000    -1.962000000
C     2.943000000     0.898000000    -4.097000000
C     4.314000000     1.159000000    -3.518000000
H     4.796000000     2.069000000    -3.882000000
H     4.904000000     0.381000000    -4.007000000
C     4.447000000     1.110000000    -2.037000000
C     4.618000000    -0.121000000    -1.325000000
C     4.717000000    -0.066000000     0.097000000
H     4.695000000    -0.943000000     0.740000000
C     4.707000000     1.140000000     0.798000000
O     4.659000000     1.027000000     2.157000000
C     3.437000000     1.083000000     2.871000000
H     2.671000000     0.741000000     2.158000000
C     3.376000000     0.084000000     3.981000000
C     2.433000000     0.272000000     4.985000000
H     1.716000000     1.087000000     4.928000000
C     4.170000000    -1.079000000     4.088000000
H     4.880000000    -1.342000000     3.307000000
C     3.972000000    -2.035000000     5.156000000
O     4.638000000    -3.283000000     5.020000000
C     3.004000000    -1.862000000     6.090000000
H     2.725000000    -2.728000000     6.684000000
C     2.246000000    -0.686000000     6.010000000
O     1.331000000    -0.507000000     6.998000000
C     0.058000000     0.079000000     6.934000000
C    -0.923000000    -0.289000000     6.037000000
H    -0.757000000    -1.149000000     5.393000000
C    -0.115000000     1.141000000     7.797000000
H     0.685000000     1.440000000     8.469000000
C    -1.277000000     1.852000000     7.836000000
H    -1.370000000     2.699000000     8.511000000
C    -2.301000000     1.502000000     6.973000000
H    -3.230000000     2.042000000     6.810000000
C    -2.106000000     0.446000000     6.043000000
O    -3.161000000    -0.025000000     5.223000000
C    -3.608000000     0.759000000     4.127000000
C    -4.910000000     0.666000000     3.646000000
H    -5.586000000    -0.026000000     4.142000000
C    -5.285000000     1.286000000     2.429000000
O    -6.561000000     1.036000000     2.000000000
C    -6.872000000     1.202000000     0.676000000
C    -6.472000000     0.182000000    -0.149000000
H    -5.885000000    -0.664000000     0.200000000
C    -7.626000000     2.330000000     0.262000000
H    -7.971000000     3.014000000     1.033000000
C    -7.959000000     2.450000000    -1.058000000
H    -8.378000000     3.361000000    -1.476000000
C    -7.552000000     1.458000000    -1.877000000
H    -7.813000000     1.590000000    -2.924000000
C    -6.847000000     0.322000000    -1.491000000
O    -6.592000000    -0.652000000    -2.369000000
C    -5.317000000    -0.988000000    -2.723000000
C    -5.131000000    -2.271000000    -3.369000000
H    -5.894000000    -3.044000000    -3.311000000
C    -3.909000000    -2.608000000    -3.942000000
O    -3.743000000    -3.763000000    -4.657000000
C    -2.534000000    -4.452000000    -4.779000000
C    -1.690000000    -4.782000000    -3.713000000
H    -1.949000000    -4.559000000    -2.681000000
C    -2.239000000    -4.992000000    -6.013000000
H    -2.816000000    -4.696000000    -6.886000000
C    -1.036000000    -5.632000000    -6.308000000
H    -0.808000000    -5.998000000    -7.306000000
C    -0.090000000    -5.853000000    -5.307000000
H     0.761000000    -6.487000000    -5.542000000
C    -0.468000000    -5.431000000    -3.996000000
O     0.356000000    -5.772000000    -3.040000000
C     1.013000000    -4.837000000    -2.231000000
C     1.273000000    -5.186000000    -0.911000000
H     0.812000000    -6.076000000    -0.491000000
C     2.179000000    -4.399000000    -0.123000000
O     2.329000000    -4.748000000     1.201000000
C     3.483000000    -4.738000000     1.866000000
C     4.549000000    -5.525000000     1.558000000
H     4.560000000    -6.089000000     0.629000000
C     5.686000000    -5.615000000     2.362000000
H     6.491000000    -6.302000000     2.112000000
C     5.736000000    -4.799000000     3.502000000
H     6.646000000    -4.822000000     4.097000000
C     4.676000000    -4.028000000     3.860000000
C     3.546000000    -4.079000000     3.121000000
H     2.699000000    -3.508000000     3.492000000
C    -0.708000000    -2.055000000    -0.066000000
H    -1.184000000    -2.711000000    -0.790000000
C     0.010000000    -0.987000000    -0.641000000
H     0.184000000    -1.038000000    -1.713000000
C     0.519000000     0.081000000     0.101000000
H     1.090000000     0.878000000    -0.408000000
C     0.207000000     0.088000000     1.469000000
H     0.444000000     0.958000000     2.077000000
C    -0.564000000    -0.934000000     2.060000000
H    -0.827000000    -0.859000000     3.112000000
C    -0.985000000    -2.076000000     1.275000000
C    -1.960000000    -3.114000000     1.867000000
O    -2.443000000    -3.032000000     3.017000000
O    -2.099000000    -4.080000000     1.201000000
O    -4.569000000    -7.506000000    -1.852000000
H    -3.876000000    -6.946000000    -1.502000000
H    -4.753000000    -7.145000000    -2.719000000
O    -0.595000000    -5.974000000     2.580000000
H    -0.923000000    -6.851000000     2.384000000
H    -1.107000000    -5.394000000     2.016000000
O    -4.480000000    -3.291000000     4.517000000
H    -5.237000000    -3.300000000     3.932000000
H    -3.726000000    -3.221000000     3.932000000
O    -7.298000000    -3.739000000    -1.182000000
H    -7.986000000    -3.279000000    -0.701000000
H    -6.488000000    -3.497000000    -0.733000000
O    -5.774000000    -0.029000000     6.876000000
H    -5.309000000    -0.271000000     6.076000000
H    -6.239000000    -0.825000000     7.132000000
O    -3.855000000    -5.619000000     2.941000000
H    -3.922000000    -4.998000000     3.666000000
H    -3.137000000    -5.284000000     2.404000000
O     0.632000000    -4.580000000     7.120000000
H     1.199000000    -5.256000000     6.749000000
H     0.374000000    -4.045000000     6.370000000
O    -6.581000000    -3.800000000     3.012000000
H    -6.591000000    -4.757000000     3.013000000
H    -7.482000000    -3.551000000     3.217000000
O    -1.021000000    -4.332000000     4.946000000
H    -0.746000000    -5.016000000     4.335000000
H    -1.438000000    -3.671000000     4.393000000
O    -2.928000000    -4.688000000     6.852000000
H    -2.104000000    -4.853000000     6.395000000
H    -3.393000000    -4.066000000     6.292000000
O    -4.603000000    -7.890000000     1.535000000
H    -5.356000000    -8.162000000     2.059000000
H    -4.333000000    -7.055000000     1.918000000
O    -2.563000000    -6.216000000    -0.372000000
H    -2.128000000    -5.386000000    -0.176000000
H    -3.131000000    -6.372000000     0.383000000
O    -7.002000000    -6.605000000    -0.493000000
H    -7.042000000    -5.776000000    -0.969000000
H    -6.274000000    -7.078000000    -0.895000000
O    -1.891000000    -8.446000000     1.964000000
H    -1.338000000    -8.618000000     1.202000000
H    -2.754000000    -8.255000000     1.597000000
O    -5.154000000    -3.666000000     0.609000000
H    -5.521000000    -3.615000000     1.491000000
H    -4.257000000    -3.345000000     0.704000000
O     1.836000000    -6.864000000     3.419000000
H     0.938000000    -6.691000000     3.134000000
H     2.333000000    -6.104000000     3.116000000
O    -5.708000000    -5.318000000     6.346000000
H    -5.467000000    -4.518000000     5.878000000
H    -4.955000000    -5.898000000     6.231000000
O    -7.791000000    -6.174000000     2.182000000
H    -8.712000000    -6.164000000     1.924000000
H    -7.319000000    -6.397000000     1.380000000
O    -2.035000000    -8.711000000     4.946000000
H    -2.879000000    -8.269000000     4.862000000
H    -1.525000000    -8.400000000     4.198000000
