215
-1436.58129
C    -3.667000000     2.015000000     1.285000000
H    -3.538000000     1.777000000     0.233000000
C    -2.691000000     2.807000000     1.914000000
C    -2.699000000     2.869000000     3.308000000
H    -2.007000000     3.540000000     3.810000000
C    -1.663000000     3.542000000     1.044000000
O    -2.303000000     4.246000000    -0.052000000
H    -0.867000000     2.862000000     0.704000000
O    -0.982000000     4.545000000     1.822000000
C     0.379000000     4.443000000     1.798000000
C     0.950000000     3.691000000     2.845000000
H     0.402000000     3.287000000     3.692000000
C     2.321000000     3.376000000     2.710000000
O     2.878000000     2.403000000     3.558000000
C     3.057000000     3.807000000     1.615000000
C     4.480000000     3.361000000     1.357000000
H     4.975000000     4.056000000     0.676000000
C     4.362000000     1.931000000     0.665000000
C     4.414000000     1.896000000    -0.753000000
H     4.290000000     2.868000000    -1.226000000
H     5.009000000     3.292000000     2.310000000
C     2.495000000     4.670000000     0.695000000
H     3.122000000     5.067000000    -0.099000000
C     1.099000000     4.878000000     0.710000000
C     0.352000000     5.602000000    -0.393000000
H     1.094000000     6.201000000    -0.925000000
H    -0.437000000     6.203000000     0.065000000
C    -0.222000000     4.653000000    -1.426000000
C     0.418000000     4.409000000    -2.682000000
H     1.418000000     4.764000000    -2.918000000
C    -1.571000000     4.165000000    -1.266000000
C    -2.120000000     3.283000000    -2.177000000
H    -3.028000000     2.765000000    -1.877000000
C    -1.448000000     2.947000000    -3.307000000
O    -2.091000000     1.995000000    -4.058000000
C    -1.622000000     0.676000000    -4.065000000
C    -2.817000000    -0.315000000    -4.173000000
C    -2.618000000    -1.574000000    -4.632000000
H    -1.709000000    -1.895000000    -5.133000000
C    -4.138000000     0.068000000    -3.735000000
H    -4.416000000     1.086000000    -3.471000000
O    -0.693000000     0.477000000    -5.115000000
H    -1.104000000     0.522000000    -3.107000000
C    -0.186000000     3.585000000    -3.598000000
C     0.659000000     3.112000000    -4.863000000
H     1.442000000     3.865000000    -4.982000000
H     0.000000000     3.103000000    -5.734000000
C     1.301000000     1.772000000    -4.680000000
C     2.601000000     1.786000000    -4.201000000
H     3.129000000     2.735000000    -4.152000000
C     0.582000000     0.563000000    -4.795000000
C     1.242000000    -0.589000000    -4.393000000
H     0.732000000    -1.549000000    -4.419000000
C     2.427000000    -0.527000000    -3.726000000
O     2.840000000    -1.720000000    -3.234000000
C     2.920000000    -2.059000000    -1.816000000
C     2.355000000    -3.406000000    -1.530000000
C     1.658000000    -4.109000000    -2.522000000
H     1.521000000    -3.814000000    -3.559000000
C     2.257000000    -3.886000000    -0.146000000
H     2.707000000    -3.321000000     0.666000000
O     4.303000000    -1.754000000    -1.394000000
H     2.218000000    -1.327000000    -1.389000000
C     3.118000000     0.657000000    -3.580000000
C     4.508000000     0.666000000    -2.950000000
H     5.165000000     1.377000000    -3.454000000
H     5.027000000    -0.259000000    -3.210000000
C     4.485000000     0.680000000    -1.435000000
C     4.453000000    -0.563000000    -0.760000000
C     4.393000000    -0.529000000     0.615000000
H     4.534000000    -1.458000000     1.162000000
C     4.302000000     0.665000000     1.299000000
O     4.206000000     0.721000000     2.663000000
C     2.853000000     1.038000000     3.099000000
H     2.227000000     0.982000000     2.196000000
C     2.426000000     0.020000000     4.126000000
C     1.537000000     0.424000000     5.143000000
H     1.109000000     1.405000000     4.948000000
C     2.989000000    -1.286000000     4.182000000
H     3.769000000    -1.563000000     3.478000000
C     2.599000000    -2.209000000     5.149000000
O     3.232000000    -3.447000000     5.279000000
C     1.735000000    -1.711000000     6.184000000
H     1.386000000    -2.367000000     6.978000000
C     1.153000000    -0.438000000     6.144000000
O     0.250000000    -0.048000000     7.115000000
C    -0.527000000     1.041000000     6.960000000
C    -1.726000000     1.051000000     6.153000000
H    -1.972000000     0.206000000     5.515000000
C    -0.273000000     2.127000000     7.773000000
H     0.590000000     2.149000000     8.433000000
C    -1.048000000     3.322000000     7.648000000
H    -0.787000000     4.195000000     8.241000000
C    -2.165000000     3.373000000     6.841000000
H    -2.689000000     4.325000000     6.800000000
C    -2.536000000     2.176000000     6.146000000
O    -3.695000000     2.250000000     5.423000000
C    -3.665000000     2.159000000     4.071000000
C    -4.562000000     1.374000000     3.389000000
H    -5.258000000     0.776000000     3.971000000
C    -4.583000000     1.221000000     1.995000000
O    -5.497000000     0.384000000     1.349000000
C    -6.175000000     0.773000000     0.214000000
C    -6.012000000     0.060000000    -0.984000000
H    -5.217000000    -0.670000000    -0.861000000
C    -7.151000000     1.797000000     0.220000000
H    -7.238000000     2.408000000     1.115000000
C    -7.979000000     1.952000000    -0.885000000
H    -8.826000000     2.633000000    -0.883000000
C    -7.873000000     1.163000000    -2.051000000
H    -8.413000000     1.470000000    -2.944000000
C    -6.772000000     0.246000000    -2.137000000
O    -6.486000000    -0.483000000    -3.313000000
C    -5.209000000    -0.862000000    -3.640000000
C    -4.981000000    -2.176000000    -4.059000000
H    -5.767000000    -2.922000000    -4.143000000
C    -3.723000000    -2.503000000    -4.593000000
O    -3.548000000    -3.820000000    -4.926000000
C    -2.293000000    -4.447000000    -5.110000000
C    -1.585000000    -4.895000000    -4.017000000
H    -1.927000000    -4.610000000    -3.026000000
C    -1.839000000    -4.782000000    -6.429000000
H    -2.419000000    -4.517000000    -7.310000000
C    -0.667000000    -5.640000000    -6.512000000
H    -0.232000000    -5.838000000    -7.488000000
C     0.023000000    -6.037000000    -5.414000000
H     0.930000000    -6.633000000    -5.470000000
C    -0.431000000    -5.655000000    -4.157000000
O     0.237000000    -6.095000000    -3.074000000
C     1.007000000    -5.330000000    -2.163000000
C     1.310000000    -5.888000000    -0.941000000
H     1.010000000    -6.907000000    -0.707000000
C     1.846000000    -5.181000000     0.070000000
O     1.854000000    -5.826000000     1.315000000
C     2.861000000    -5.588000000     2.284000000
C     4.055000000    -6.416000000     2.374000000
H     4.229000000    -7.266000000     1.719000000
C     4.906000000    -6.149000000     3.426000000
H     5.817000000    -6.741000000     3.391000000
C     4.660000000    -5.217000000     4.382000000
H     5.258000000    -5.132000000     5.285000000
C     3.529000000    -4.403000000     4.230000000
C     2.681000000    -4.549000000     3.205000000
H     1.767000000    -3.962000000     3.166000000
C    -1.655000000    -2.099000000    -0.329000000
H    -2.158000000    -2.816000000    -0.973000000
C    -0.725000000    -1.196000000    -0.826000000
H    -0.410000000    -1.239000000    -1.865000000
C    -0.188000000    -0.228000000    -0.070000000
H     0.515000000     0.496000000    -0.533000000
C    -0.475000000    -0.135000000     1.350000000
H     0.076000000     0.539000000     2.001000000
C    -1.317000000    -1.157000000     1.860000000
H    -1.558000000    -1.166000000     2.920000000
C    -1.907000000    -2.160000000     1.050000000
C    -2.930000000    -3.201000000     1.516000000
O    -3.074000000    -3.398000000     2.721000000
O    -3.392000000    -3.975000000     0.710000000
O    -4.378000000    -8.178000000    -1.942000000
H    -4.742000000    -7.293000000    -1.963000000
H    -3.431000000    -8.047000000    -1.897000000
O    -1.752000000    -5.346000000     3.740000000
H    -0.948000000    -5.041000000     4.161000000
H    -2.115000000    -4.565000000     3.323000000
O    -4.485000000    -3.209000000     4.915000000
H    -3.970000000    -3.520000000     5.660000000
H    -3.869000000    -3.209000000     4.182000000
O    -8.023000000    -2.666000000    -0.561000000
H    -8.679000000    -3.266000000    -0.205000000
H    -7.186000000    -3.030000000    -0.275000000
O    -6.314000000    -5.831000000    -2.622000000
H    -6.145000000    -5.327000000    -1.826000000
H    -6.912000000    -6.525000000    -2.344000000
O    -8.813000000    -0.400000000     3.661000000
H    -7.916000000    -0.726000000     3.584000000
H    -8.732000000     0.549000000     3.557000000
O    -5.042000000    -0.387000000     7.630000000
H    -4.751000000    -0.906000000     6.880000000
H    -5.564000000     0.317000000     7.246000000
O    -5.623000000    -5.271000000     2.698000000
H    -5.879000000    -4.931000000     3.555000000
H    -4.841000000    -4.770000000     2.466000000
O    -1.703000000    -8.282000000    -1.818000000
H    -1.677000000    -7.428000000    -1.386000000
H    -0.859000000    -8.350000000    -2.264000000
O    -1.616000000    -7.724000000     1.741000000
H    -1.303000000    -6.993000000     2.275000000
H    -0.999000000    -8.433000000     1.921000000
O     0.247000000    -4.944000000     5.805000000
H     0.827000000    -4.561000000     6.463000000
H     0.718000000    -5.716000000     5.491000000
O    -6.312000000    -1.339000000     3.907000000
H    -5.867000000    -1.442000000     3.065000000
H    -5.875000000    -1.962000000     4.487000000
O    -6.955000000    -7.764000000     3.057000000
H    -6.100000000    -8.190000000     3.109000000
H    -6.755000000    -6.845000000     2.882000000
O    -2.153000000    -4.179000000     7.009000000
H    -1.953000000    -3.732000000     7.831000000
H    -1.333000000    -4.609000000     6.765000000
O    -4.158000000    -8.701000000     2.597000000
H    -3.321000000    -8.440000000     2.215000000
H    -4.285000000    -8.098000000     3.330000000
O    -2.144000000    -5.971000000    -0.510000000
H    -2.677000000    -5.272000000    -0.131000000
H    -1.914000000    -6.527000000     0.234000000
O    -1.235000000    -8.027000000     6.328000000
H    -0.322000000    -7.933000000     6.054000000
H    -1.743000000    -7.734000000     5.572000000
O    -5.910000000    -4.396000000     0.072000000
H    -5.044000000    -3.988000000     0.059000000
H    -5.894000000    -4.967000000     0.839000000
O    -3.967000000    -6.986000000     4.628000000
H    -4.711000000    -6.394000000     4.739000000
H    -3.311000000    -6.462000000     4.166000000
