215
-1454.21359
C     3.661000000     1.847000000    -2.292000000
H     3.212000000     1.137000000    -2.981000000
C     4.184000000     1.476000000    -1.089000000
C     4.688000000     2.461000000    -0.314000000
H     5.143000000     2.225000000     0.644000000
C     4.178000000    -0.012000000    -0.676000000
O     4.611000000    -0.856000000    -1.813000000
H     3.126000000    -0.223000000    -0.432000000
O     4.988000000    -0.192000000     0.482000000
C     4.317000000    -0.754000000     1.471000000
C     3.875000000    -0.033000000     2.547000000
H     4.039000000     1.041000000     2.523000000
C     3.132000000    -0.610000000     3.541000000
O     2.469000000     0.267000000     4.336000000
C     2.867000000    -1.960000000     3.501000000
C     1.970000000    -2.640000000     4.553000000
H     2.226000000    -3.700000000     4.619000000
C     0.473000000    -2.600000000     4.136000000
C    -0.183000000    -3.730000000     3.512000000
H     0.353000000    -4.667000000     3.382000000
H     2.059000000    -2.300000000     5.587000000
C     3.393000000    -2.773000000     2.492000000
H     3.154000000    -3.826000000     2.371000000
C     4.155000000    -2.174000000     1.454000000
C     4.614000000    -3.041000000     0.286000000
H     4.794000000    -4.023000000     0.728000000
H     5.526000000    -2.580000000    -0.101000000
C     3.655000000    -2.960000000    -0.898000000
C     2.732000000    -4.003000000    -1.042000000
H     2.812000000    -4.776000000    -0.282000000
C     3.800000000    -2.033000000    -1.938000000
C     2.874000000    -2.029000000    -3.014000000
H     2.910000000    -1.222000000    -3.741000000
C     1.917000000    -3.046000000    -3.070000000
O     0.974000000    -2.765000000    -4.005000000
C    -0.330000000    -2.448000000    -3.486000000
C    -1.020000000    -1.577000000    -4.539000000
C    -2.387000000    -1.563000000    -4.718000000
H    -3.035000000    -2.337000000    -4.315000000
C    -0.338000000    -0.526000000    -5.069000000
H     0.690000000    -0.386000000    -4.744000000
O    -1.128000000    -3.616000000    -3.296000000
H    -0.200000000    -1.972000000    -2.502000000
C     1.844000000    -4.057000000    -2.096000000
C     0.844000000    -5.257000000    -2.065000000
H     1.444000000    -6.107000000    -1.733000000
H     0.664000000    -5.574000000    -3.094000000
C    -0.418000000    -4.829000000    -1.313000000
C    -0.692000000    -5.016000000     0.073000000
H     0.085000000    -5.490000000     0.668000000
C    -1.390000000    -4.039000000    -2.030000000
C    -2.409000000    -3.409000000    -1.363000000
H    -2.965000000    -2.723000000    -1.997000000
C    -2.753000000    -3.759000000    -0.097000000
O    -3.674000000    -3.019000000     0.490000000
C    -3.298000000    -1.873000000     1.265000000
C    -4.187000000    -0.676000000     0.760000000
C    -5.106000000    -0.810000000    -0.300000000
H    -5.243000000    -1.748000000    -0.831000000
C    -4.021000000     0.534000000     1.367000000
H    -3.487000000     0.635000000     2.308000000
O    -3.389000000    -2.220000000     2.596000000
H    -2.298000000    -1.501000000     0.999000000
C    -1.842000000    -4.542000000     0.652000000
C    -2.092000000    -4.645000000     2.167000000
H    -1.863000000    -5.636000000     2.563000000
H    -3.178000000    -4.641000000     2.281000000
C    -1.457000000    -3.562000000     2.995000000
C    -2.175000000    -2.354000000     3.200000000
C    -1.598000000    -1.368000000     3.936000000
H    -2.212000000    -0.521000000     4.229000000
C    -0.229000000    -1.417000000     4.325000000
O     0.321000000    -0.282000000     4.858000000
C     1.115000000     0.525000000     3.994000000
H     0.875000000     0.329000000     2.938000000
C     0.808000000     1.999000000     4.270000000
C     1.738000000     3.004000000     4.033000000
H     2.689000000     2.726000000     3.587000000
C    -0.484000000     2.424000000     4.603000000
H    -1.259000000     1.662000000     4.618000000
C    -0.767000000     3.754000000     4.892000000
O    -2.028000000     4.186000000     5.271000000
C     0.141000000     4.746000000     4.591000000
H    -0.058000000     5.796000000     4.787000000
C     1.409000000     4.346000000     4.288000000
O     2.405000000     5.354000000     4.183000000
C     3.674000000     5.222000000     3.566000000
C     3.829000000     4.850000000     2.201000000
H     2.952000000     4.707000000     1.575000000
C     4.760000000     5.479000000     4.302000000
H     4.665000000     5.943000000     5.281000000
C     6.024000000     5.349000000     3.756000000
H     6.814000000     5.609000000     4.456000000
C     6.236000000     5.104000000     2.377000000
H     7.206000000     5.106000000     1.887000000
C     5.125000000     4.750000000     1.599000000
O     5.245000000     4.778000000     0.233000000
C     4.716000000     3.789000000    -0.661000000
C     4.199000000     4.219000000    -1.819000000
H     4.115000000     5.256000000    -2.136000000
C     3.675000000     3.193000000    -2.653000000
O     3.106000000     3.581000000    -3.821000000
C     2.875000000     2.682000000    -4.825000000
C     1.514000000     2.480000000    -5.086000000
H     0.765000000     2.985000000    -4.482000000
C     3.830000000     1.988000000    -5.539000000
H     4.842000000     2.245000000    -5.236000000
C     3.372000000     1.142000000    -6.531000000
H     4.087000000     0.687000000    -7.211000000
C     2.002000000     0.925000000    -6.772000000
H     1.760000000     0.331000000    -7.649000000
C     1.048000000     1.645000000    -6.047000000
O    -0.322000000     1.512000000    -6.326000000
C    -1.030000000     0.469000000    -5.752000000
C    -2.352000000     0.308000000    -6.116000000
H    -2.856000000     1.095000000    -6.672000000
C    -3.040000000    -0.701000000    -5.550000000
O    -4.334000000    -0.876000000    -5.815000000
C    -5.291000000    -1.121000000    -4.839000000
C    -5.365000000    -0.429000000    -3.649000000
H    -4.594000000     0.274000000    -3.344000000
C    -6.230000000    -2.089000000    -5.181000000
H    -6.204000000    -2.536000000    -6.172000000
C    -7.352000000    -2.311000000    -4.352000000
H    -8.110000000    -3.040000000    -4.628000000
C    -7.502000000    -1.505000000    -3.172000000
H    -8.416000000    -1.609000000    -2.593000000
C    -6.486000000    -0.575000000    -2.839000000
O    -6.691000000     0.311000000    -1.769000000
C    -5.747000000     0.326000000    -0.772000000
C    -5.507000000     1.520000000    -0.140000000
H    -5.860000000     2.471000000    -0.529000000
C    -4.576000000     1.681000000     0.900000000
O    -4.621000000     2.856000000     1.571000000
C    -4.480000000     2.939000000     2.932000000
C    -5.454000000     2.381000000     3.764000000
H    -6.393000000     2.057000000     3.324000000
C    -5.223000000     2.340000000     5.129000000
H    -5.949000000     1.843000000     5.768000000
C    -4.098000000     2.927000000     5.678000000
H    -3.837000000     2.817000000     6.728000000
C    -3.182000000     3.558000000     4.820000000
C    -3.368000000     3.589000000     3.444000000
H    -2.688000000     4.013000000     2.710000000
C    -1.434000000     1.155000000    -1.008000000
H    -2.138000000     1.541000000    -1.741000000
C    -1.219000000    -0.204000000    -1.063000000
H    -1.865000000    -0.856000000    -1.645000000
C    -0.217000000    -0.769000000    -0.268000000
H     0.014000000    -1.851000000    -0.383000000
C     0.605000000     0.147000000     0.495000000
H     1.487000000    -0.289000000     0.958000000
C     0.273000000     1.454000000     0.559000000
H     0.769000000     2.065000000     1.308000000
C    -0.705000000     2.032000000    -0.263000000
C    -1.118000000     3.503000000    -0.308000000
O    -0.464000000     4.311000000     0.333000000
O    -1.791000000     3.980000000    -1.230000000
O    -5.961000000     2.518000000    -6.011000000
H    -5.419000000     2.258000000    -6.755000000
H    -5.377000000     2.458000000    -5.255000000
O    -3.956000000     5.289000000    -0.393000000
H    -4.382000000     4.469000000    -0.141000000
H    -3.193000000     5.015000000    -0.901000000
O    -1.194000000     6.942000000     0.429000000
H    -0.660000000     6.157000000     0.307000000
H    -2.034000000     6.726000000     0.026000000
O    -5.612000000     6.964000000     1.134000000
H    -6.025000000     6.101000000     1.178000000
H    -4.740000000     6.794000000     0.778000000
O     0.986000000     5.975000000    -4.089000000
H     1.649000000     6.018000000    -4.778000000
H     1.428000000     5.543000000    -3.358000000
O    -1.695000000     3.075000000    -3.764000000
H    -0.912000000     2.534000000    -3.664000000
H    -1.828000000     3.467000000    -2.900000000
O    -2.441000000     7.099000000     4.142000000
H    -2.993000000     6.797000000     3.422000000
H    -3.048000000     7.233000000     4.870000000
O    -4.152000000     5.962000000    -3.671000000
H    -3.309000000     5.889000000    -3.222000000
H    -4.078000000     6.763000000    -4.190000000
O     2.499000000     9.559000000    -0.214000000
H     2.775000000     9.469000000     0.698000000
H     2.805000000     8.756000000    -0.637000000
O    -4.059000000     8.695000000    -2.932000000
H    -3.904000000     9.506000000    -2.450000000
H    -3.691000000     8.010000000    -2.374000000
O    -6.858000000     5.687000000    -3.746000000
H    -5.962000000     5.832000000    -3.444000000
H    -6.924000000     6.195000000    -4.554000000
O    -7.232000000     4.899000000     0.396000000
H    -7.916000000     5.237000000    -0.182000000
H    -6.918000000     4.108000000    -0.042000000
O     0.103000000     8.050000000     3.444000000
H     0.312000000     7.651000000     2.599000000
H    -0.838000000     7.909000000     3.549000000
O    -1.744000000     5.983000000    -2.884000000
H    -0.967000000     6.019000000    -3.443000000
H    -1.517000000     5.354000000    -2.200000000
O    -1.361000000     4.794000000    -5.901000000
H    -1.694000000     4.424000000    -5.084000000
H    -0.672000000     5.399000000    -5.627000000
O     2.638000000     8.636000000     2.831000000
H     3.169000000     8.006000000     3.318000000
H     1.735000000     8.365000000     2.994000000
O    -2.474000000     9.151000000     1.601000000
H    -2.079000000     8.503000000     1.017000000
H    -1.770000000     9.774000000     1.779000000
O    -4.420000000     2.917000000    -3.936000000
H    -3.474000000     2.774000000    -3.908000000
H    -4.519000000     3.868000000    -3.897000000
O     1.325000000     5.453000000    -1.348000000
H     1.043000000     6.301000000    -1.004000000
H     0.905000000     4.811000000    -0.775000000
