215
-1455.44906
C    -3.112000000     2.508000000     2.480000000
H    -3.282000000     2.671000000     1.419000000
C    -2.022000000     2.970000000     3.219000000
C    -1.835000000     2.627000000     4.583000000
H    -0.912000000     2.822000000     5.123000000
C    -0.933000000     3.572000000     2.347000000
O    -1.475000000     4.663000000     1.556000000
H    -0.561000000     2.768000000     1.695000000
O     0.179000000     4.058000000     3.112000000
C     1.461000000     3.835000000     2.632000000
C     2.102000000     2.694000000     3.133000000
H     1.734000000     2.277000000     4.067000000
C     3.316000000     2.193000000     2.587000000
O     3.778000000     0.988000000     3.150000000
C     3.843000000     2.773000000     1.430000000
C     5.122000000     2.176000000     0.901000000
H     5.634000000     3.067000000     0.534000000
C     4.905000000     1.069000000    -0.128000000
C     4.757000000     1.310000000    -1.492000000
H     4.872000000     2.307000000    -1.909000000
H     5.720000000     1.716000000     1.691000000
C     3.113000000     3.875000000     0.878000000
H     3.520000000     4.318000000    -0.027000000
C     1.991000000     4.465000000     1.477000000
C     1.197000000     5.539000000     0.733000000
H     1.788000000     6.300000000     0.219000000
H     0.782000000     6.271000000     1.429000000
C     0.143000000     5.060000000    -0.249000000
C     0.488000000     4.814000000    -1.559000000
H     1.496000000     4.961000000    -1.939000000
C    -1.108000000     4.622000000     0.192000000
C    -2.046000000     4.150000000    -0.710000000
H    -3.069000000     3.915000000    -0.428000000
C    -1.652000000     3.790000000    -1.996000000
O    -2.570000000     3.072000000    -2.745000000
C    -2.317000000     1.680000000    -2.981000000
C    -3.640000000     0.925000000    -3.159000000
C    -3.698000000    -0.347000000    -3.839000000
H    -2.785000000    -0.807000000    -4.207000000
C    -4.687000000     1.353000000    -2.460000000
H    -4.627000000     2.252000000    -1.852000000
O    -1.523000000     1.543000000    -4.239000000
H    -1.847000000     1.344000000    -2.045000000
C    -0.407000000     4.161000000    -2.482000000
C     0.104000000     3.894000000    -3.915000000
H     0.896000000     4.583000000    -4.217000000
H    -0.601000000     3.909000000    -4.749000000
C     0.647000000     2.468000000    -3.891000000
C     2.049000000     2.239000000    -3.784000000
H     2.739000000     3.059000000    -3.603000000
C    -0.190000000     1.375000000    -4.153000000
C     0.321000000     0.097000000    -4.260000000
H    -0.280000000    -0.794000000    -4.423000000
C     1.709000000    -0.113000000    -4.171000000
O     2.150000000    -1.392000000    -4.221000000
C     2.364000000    -2.018000000    -2.939000000
C     1.789000000    -3.405000000    -2.760000000
C     0.561000000    -3.732000000    -3.368000000
H     0.020000000    -3.009000000    -3.974000000
C     2.454000000    -4.481000000    -2.164000000
H     3.426000000    -4.250000000    -1.736000000
O     3.774000000    -1.995000000    -2.764000000
H     1.920000000    -1.418000000    -2.130000000
C     2.559000000     0.947000000    -3.905000000
C     4.037000000     0.719000000    -3.772000000
H     4.557000000     1.618000000    -4.107000000
H     4.368000000    -0.036000000    -4.488000000
C     4.339000000     0.322000000    -2.365000000
C     4.331000000    -0.988000000    -1.916000000
C     4.567000000    -1.281000000    -0.614000000
H     4.425000000    -2.275000000    -0.196000000
C     4.810000000    -0.256000000     0.248000000
O     4.671000000    -0.642000000     1.582000000
C     3.599000000    -0.214000000     2.452000000
H     2.665000000     0.065000000     1.943000000
C     3.147000000    -1.396000000     3.432000000
C     2.224000000    -1.164000000     4.477000000
H     2.196000000    -0.144000000     4.852000000
C     3.346000000    -2.665000000     2.938000000
H     3.896000000    -2.787000000     2.008000000
C     2.728000000    -3.765000000     3.624000000
O     2.808000000    -5.072000000     3.219000000
C     1.783000000    -3.557000000     4.630000000
H     1.368000000    -4.427000000     5.132000000
C     1.642000000    -2.239000000     5.162000000
O     0.555000000    -2.047000000     5.954000000
C     0.145000000    -0.823000000     6.593000000
C    -1.076000000    -0.306000000     6.274000000
H    -1.701000000    -0.728000000     5.491000000
C     0.950000000    -0.124000000     7.514000000
H     1.942000000    -0.551000000     7.630000000
C     0.512000000     0.961000000     8.292000000
H     1.239000000     1.415000000     8.960000000
C    -0.711000000     1.477000000     7.879000000
H    -1.076000000     2.421000000     8.275000000
C    -1.533000000     0.850000000     6.923000000
O    -2.716000000     1.389000000     6.518000000
C    -2.819000000     1.888000000     5.239000000
C    -4.007000000     1.555000000     4.500000000
H    -4.816000000     1.022000000     4.993000000
C    -4.196000000     1.948000000     3.147000000
O    -5.366000000     1.547000000     2.529000000
C    -5.966000000     2.163000000     1.532000000
C    -6.080000000     1.475000000     0.334000000
H    -5.508000000     0.560000000     0.204000000
C    -6.748000000     3.288000000     1.810000000
H    -6.768000000     3.722000000     2.807000000
C    -7.525000000     3.817000000     0.754000000
H    -8.141000000     4.695000000     0.930000000
C    -7.746000000     3.070000000    -0.428000000
H    -8.386000000     3.505000000    -1.191000000
C    -6.993000000     1.901000000    -0.645000000
O    -6.973000000     1.204000000    -1.828000000
C    -5.924000000     0.706000000    -2.606000000
C    -6.054000000    -0.497000000    -3.299000000
H    -6.957000000    -1.088000000    -3.434000000
C    -4.906000000    -1.003000000    -3.949000000
O    -5.016000000    -2.217000000    -4.550000000
C    -3.895000000    -2.982000000    -4.995000000
C    -3.111000000    -3.694000000    -4.034000000
H    -3.388000000    -3.591000000    -2.988000000
C    -3.544000000    -2.991000000    -6.348000000
H    -4.166000000    -2.421000000    -7.033000000
C    -2.519000000    -3.770000000    -6.798000000
H    -2.234000000    -3.782000000    -7.847000000
C    -1.760000000    -4.536000000    -5.937000000
H    -0.936000000    -5.160000000    -6.273000000
C    -2.027000000    -4.458000000    -4.541000000
O    -1.335000000    -5.205000000    -3.647000000
C    -0.072000000    -4.933000000    -3.163000000
C     0.594000000    -5.924000000    -2.401000000
H     0.029000000    -6.820000000    -2.155000000
C     1.873000000    -5.729000000    -1.947000000
O     2.473000000    -6.682000000    -1.129000000
C     3.188000000    -6.441000000    -0.037000000
C     4.568000000    -6.773000000    -0.061000000
H     5.026000000    -7.304000000    -0.891000000
C     5.432000000    -6.508000000     1.043000000
H     6.481000000    -6.775000000     1.139000000
C     4.817000000    -5.984000000     2.176000000
H     5.372000000    -5.954000000     3.110000000
C     3.491000000    -5.573000000     2.126000000
C     2.666000000    -5.810000000     1.037000000
H     1.629000000    -5.498000000     1.134000000
C    -1.817000000    -1.275000000    -0.205000000
H    -2.421000000    -1.804000000    -0.938000000
C    -0.578000000    -0.713000000    -0.562000000
H    -0.140000000    -0.869000000    -1.545000000
C     0.240000000    -0.170000000     0.433000000
H     1.267000000     0.159000000     0.241000000
C    -0.191000000    -0.126000000     1.775000000
H     0.482000000     0.254000000     2.540000000
C    -1.363000000    -0.753000000     2.121000000
H    -1.685000000    -0.905000000     3.148000000
C    -2.252000000    -1.218000000     1.093000000
C    -3.570000000    -1.811000000     1.491000000
O    -3.805000000    -2.216000000     2.654000000
O    -4.403000000    -1.929000000     0.615000000
O    -7.444000000    -7.200000000     3.286000000
H    -7.402000000    -6.289000000     2.996000000
H    -6.754000000    -7.275000000     3.944000000
O    -4.941000000    -5.841000000    -2.972000000
H    -5.118000000    -5.396000000    -2.143000000
H    -4.185000000    -6.398000000    -2.788000000
O    -3.230000000    -6.123000000     0.115000000
H    -2.566000000    -5.903000000     0.769000000
H    -3.568000000    -5.276000000    -0.177000000
O    -6.673000000    -1.718000000     2.888000000
H    -6.936000000    -2.008000000     2.014000000
H    -5.729000000    -1.579000000     2.820000000
O    -2.131000000    -4.143000000     4.142000000
H    -2.026000000    -4.129000000     5.094000000
H    -2.602000000    -3.335000000     3.941000000
O    -7.393000000    -4.998000000     1.468000000
H    -7.165000000    -5.769000000     0.949000000
H    -6.551000000    -4.612000000     1.707000000
O    -4.773000000    -3.952000000    -1.121000000
H    -4.635000000    -3.413000000    -0.343000000
H    -5.110000000    -3.343000000    -1.778000000
O    -7.464000000     1.240000000     4.767000000
H    -6.727000000     1.094000000     4.174000000
H    -8.239000000     1.064000000     4.234000000
O    -3.216000000    -7.833000000    -2.029000000
H    -2.457000000    -8.415000000    -1.989000000
H    -3.154000000    -7.305000000    -1.234000000
O    -5.525000000    -0.913000000     7.754000000
H    -6.466000000    -0.839000000     7.594000000
H    -5.157000000    -1.171000000     6.909000000
O    -9.035000000    -2.565000000     4.028000000
H    -8.927000000    -3.513000000     4.103000000
H    -8.203000000    -2.257000000     3.670000000
O    -1.150000000    -5.528000000     1.695000000
H    -1.237000000    -5.095000000     2.544000000
H    -0.508000000    -5.000000000     1.221000000
O    -2.961000000    -8.216000000     1.793000000
H    -3.262000000    -7.577000000     1.148000000
H    -3.468000000    -9.006000000     1.602000000
O    -2.562000000    -3.108000000     7.251000000
H    -1.774000000    -3.643000000     7.346000000
H    -2.449000000    -2.400000000     7.886000000
O    -4.437000000    -2.278000000     5.424000000
H    -4.130000000    -2.435000000     4.531000000
H    -3.676000000    -2.460000000     5.975000000
O     0.145000000    -3.311000000     0.776000000
H    -0.371000000    -2.608000000     0.382000000
H     0.606000000    -2.891000000     1.502000000
O    -7.087000000    -2.030000000     0.289000000
H    -7.294000000    -2.957000000     0.169000000
H    -6.131000000    -2.002000000     0.333000000
O    -8.738000000    -0.040000000     0.849000000
H    -8.681000000     0.584000000     0.125000000
H    -8.051000000    -0.681000000     0.666000000
O    -4.790000000    -4.687000000     2.404000000
H    -4.600000000    -3.758000000     2.533000000
H    -4.301000000    -5.131000000     3.097000000
