215
-1452.18388
C    -3.540000000     2.472000000     2.252000000
H    -3.723000000     2.639000000     1.193000000
C    -2.400000000     2.948000000     2.843000000
C    -2.183000000     2.726000000     4.210000000
H    -1.312000000     3.020000000     4.791000000
C    -1.367000000     3.642000000     2.020000000
O    -1.845000000     4.716000000     1.071000000
H    -0.901000000     2.871000000     1.389000000
O    -0.313000000     4.203000000     2.824000000
C     0.997000000     3.863000000     2.494000000
C     1.565000000     2.852000000     3.298000000
H     1.033000000     2.437000000     4.151000000
C     2.749000000     2.293000000     2.872000000
O     3.267000000     1.211000000     3.524000000
C     3.458000000     2.945000000     1.776000000
C     4.876000000     2.487000000     1.400000000
H     5.387000000     3.296000000     0.873000000
C     4.737000000     1.264000000     0.487000000
C     4.773000000     1.458000000    -0.899000000
H     4.805000000     2.499000000    -1.211000000
H     5.546000000     2.239000000     2.225000000
C     2.827000000     3.931000000     1.004000000
H     3.356000000     4.362000000     0.159000000
C     1.586000000     4.359000000     1.319000000
C     0.976000000     5.513000000     0.510000000
H     1.754000000     6.049000000    -0.036000000
H     0.426000000     6.292000000     1.042000000
C    -0.019000000     4.928000000    -0.560000000
C     0.516000000     4.615000000    -1.816000000
H     1.540000000     4.874000000    -2.073000000
C    -1.362000000     4.582000000    -0.192000000
C    -2.175000000     4.064000000    -1.188000000
H    -3.165000000     3.778000000    -0.841000000
C    -1.674000000     3.720000000    -2.495000000
O    -2.428000000     2.864000000    -3.303000000
C    -1.997000000     1.487000000    -3.577000000
C    -3.201000000     0.619000000    -3.619000000
C    -3.309000000    -0.513000000    -4.449000000
H    -2.437000000    -0.900000000    -4.970000000
C    -4.304000000     0.850000000    -2.787000000
H    -4.253000000     1.677000000    -2.083000000
O    -1.233000000     1.401000000    -4.820000000
H    -1.320000000     1.164000000    -2.772000000
C    -0.308000000     4.016000000    -2.761000000
C     0.303000000     3.830000000    -4.134000000
H     1.063000000     4.611000000    -4.205000000
H    -0.472000000     3.967000000    -4.891000000
C     0.895000000     2.416000000    -4.248000000
C     2.206000000     2.127000000    -3.806000000
H     2.714000000     3.022000000    -3.456000000
C     0.124000000     1.305000000    -4.574000000
C     0.702000000    -0.010000000    -4.530000000
H     0.033000000    -0.816000000    -4.823000000
C     2.007000000    -0.206000000    -4.193000000
O     2.482000000    -1.508000000    -4.074000000
C     2.669000000    -1.957000000    -2.728000000
C     2.047000000    -3.313000000    -2.528000000
C     0.882000000    -3.657000000    -3.286000000
H     0.530000000    -2.923000000    -4.006000000
C     2.552000000    -4.309000000    -1.656000000
H     3.459000000    -4.192000000    -1.069000000
O     3.964000000    -1.917000000    -2.127000000
H     2.029000000    -1.241000000    -2.190000000
C     2.833000000     0.902000000    -3.829000000
C     4.266000000     0.803000000    -3.292000000
H     4.778000000     1.747000000    -3.487000000
H     4.866000000     0.140000000    -3.919000000
C     4.516000000     0.457000000    -1.835000000
C     4.361000000    -0.849000000    -1.310000000
C     4.432000000    -1.092000000     0.048000000
H     4.223000000    -2.077000000     0.458000000
C     4.763000000    -0.048000000     0.982000000
O     4.558000000    -0.448000000     2.282000000
C     3.254000000    -0.068000000     2.836000000
H     2.609000000     0.140000000     1.969000000
C     2.656000000    -1.159000000     3.670000000
C     1.819000000    -0.811000000     4.722000000
H     1.399000000     0.167000000     4.942000000
C     2.989000000    -2.443000000     3.400000000
H     3.723000000    -2.609000000     2.616000000
C     2.342000000    -3.496000000     4.066000000
O     2.605000000    -4.832000000     3.854000000
C     1.522000000    -3.132000000     5.132000000
H     1.050000000    -3.892000000     5.750000000
C     1.195000000    -1.842000000     5.427000000
O     0.282000000    -1.612000000     6.396000000
C    -0.195000000    -0.433000000     6.827000000
C    -1.400000000     0.101000000     6.303000000
H    -1.989000000    -0.423000000     5.554000000
C     0.436000000     0.237000000     7.848000000
H     1.285000000    -0.218000000     8.351000000
C    -0.070000000     1.381000000     8.361000000
H     0.431000000     1.760000000     9.248000000
C    -1.237000000     1.942000000     7.826000000
H    -1.719000000     2.842000000     8.199000000
C    -1.935000000     1.256000000     6.862000000
O    -3.080000000     1.805000000     6.333000000
C    -3.145000000     2.000000000     4.926000000
C    -4.310000000     1.642000000     4.332000000
H    -5.044000000     1.122000000     4.944000000
C    -4.571000000     1.884000000     3.016000000
O    -5.796000000     1.422000000     2.431000000
C    -6.214000000     1.820000000     1.187000000
C    -6.198000000     0.868000000     0.170000000
H    -5.890000000    -0.142000000     0.425000000
C    -6.580000000     3.160000000     0.922000000
H    -6.622000000     3.811000000     1.792000000
C    -6.964000000     3.547000000    -0.387000000
H    -7.223000000     4.576000000    -0.623000000
C    -6.911000000     2.593000000    -1.333000000
H    -7.196000000     2.893000000    -2.339000000
C    -6.461000000     1.281000000    -1.140000000
O    -6.496000000     0.305000000    -2.114000000
C    -5.357000000     0.008000000    -2.839000000
C    -5.464000000    -1.116000000    -3.656000000
H    -6.262000000    -1.836000000    -3.497000000
C    -4.443000000    -1.361000000    -4.534000000
O    -4.444000000    -2.496000000    -5.330000000
C    -3.329000000    -3.233000000    -5.532000000
C    -2.647000000    -3.845000000    -4.481000000
H    -3.017000000    -3.782000000    -3.461000000
C    -2.820000000    -3.343000000    -6.789000000
H    -3.419000000    -2.827000000    -7.535000000
C    -1.667000000    -4.120000000    -7.061000000
H    -1.541000000    -4.388000000    -8.107000000
C    -0.889000000    -4.575000000    -6.045000000
H     0.062000000    -5.088000000    -6.167000000
C    -1.484000000    -4.573000000    -4.769000000
O    -0.989000000    -5.201000000    -3.748000000
C     0.239000000    -4.903000000    -3.080000000
C     0.761000000    -5.802000000    -2.188000000
H     0.286000000    -6.777000000    -2.111000000
C     1.952000000    -5.550000000    -1.479000000
O     2.541000000    -6.483000000    -0.679000000
C     3.281000000    -6.113000000     0.419000000
C     4.457000000    -6.821000000     0.653000000
H     4.909000000    -7.435000000    -0.121000000
C     5.011000000    -6.849000000     1.929000000
H     5.891000000    -7.458000000     2.120000000
C     4.400000000    -6.103000000     2.959000000
H     4.724000000    -6.277000000     3.982000000
C     3.264000000    -5.338000000     2.781000000
C     2.700000000    -5.347000000     1.495000000
H     1.700000000    -4.973000000     1.290000000
C    -2.818000000    -1.102000000     0.175000000
H    -3.601000000    -1.626000000    -0.367000000
C    -1.665000000    -0.598000000    -0.527000000
H    -1.691000000    -0.706000000    -1.608000000
C    -0.609000000     0.061000000     0.146000000
H     0.201000000     0.480000000    -0.344000000
C    -0.705000000     0.266000000     1.524000000
H     0.163000000     0.673000000     2.037000000
C    -1.803000000    -0.252000000     2.246000000
H    -1.836000000    -0.037000000     3.311000000
C    -2.815000000    -0.994000000     1.578000000
C    -4.015000000    -1.447000000     2.375000000
O    -3.896000000    -1.768000000     3.550000000
O    -5.056000000    -1.835000000     1.770000000
O    -6.508000000    -5.512000000     0.303000000
H    -5.944000000    -5.300000000     1.047000000
H    -7.070000000    -6.218000000     0.622000000
O    -2.984000000    -4.863000000     0.065000000
H    -3.653000000    -4.570000000     0.683000000
H    -2.179000000    -4.443000000     0.367000000
O    -6.726000000    -2.402000000     4.010000000
H    -6.130000000    -2.199000000     3.288000000
H    -6.179000000    -2.352000000     4.793000000
O    -3.016000000    -6.985000000     2.680000000
H    -3.320000000    -6.105000000     2.456000000
H    -3.226000000    -7.514000000     1.910000000
O    -9.279000000     0.105000000     1.427000000
H    -9.952000000     0.463000000     0.847000000
H    -8.560000000    -0.133000000     0.841000000
O    -2.609000000    -3.967000000     3.942000000
H    -2.350000000    -3.970000000     4.863000000
H    -3.185000000    -3.207000000     3.857000000
O    -7.779000000     0.997000000     6.563000000
H    -7.980000000     0.116000000     6.879000000
H    -7.926000000     0.952000000     5.618000000
O    -5.073000000    -4.512000000     2.411000000
H    -5.141000000    -3.562000000     2.312000000
H    -5.065000000    -4.654000000     3.357000000
O    -8.262000000    -0.146000000     3.873000000
H    -8.654000000    -0.088000000     3.002000000
H    -7.575000000    -0.806000000     3.784000000
O    -5.998000000    -1.160000000     7.973000000
H    -6.842000000    -1.439000000     7.617000000
H    -5.350000000    -1.631000000     7.448000000
O    -8.926000000    -4.079000000     4.595000000
H    -8.743000000    -4.878000000     5.089000000
H    -8.063000000    -3.702000000     4.422000000
O    -0.451000000    -5.167000000     2.514000000
H    -1.198000000    -4.933000000     3.064000000
H    -0.219000000    -4.354000000     2.065000000
O    -1.897000000    -4.070000000     6.626000000
H    -1.594000000    -4.945000000     6.867000000
H    -1.213000000    -3.482000000     6.946000000
O    -4.869000000    -5.340000000     6.330000000
H    -4.421000000    -5.913000000     5.708000000
H    -4.798000000    -5.796000000     7.169000000
O    -4.608000000    -2.406000000     6.073000000
H    -4.174000000    -2.319000000     5.224000000
H    -4.435000000    -3.310000000     6.339000000
O     0.166000000    -2.462000000     1.416000000
H    -0.459000000    -1.984000000     0.872000000
H     0.561000000    -1.791000000     1.973000000
O    -7.021000000    -2.866000000     0.281000000
H    -6.953000000    -3.759000000     0.619000000
H    -6.336000000    -2.383000000     0.742000000
O    -8.937000000    -1.878000000    -1.114000000
H    -8.632000000    -1.022000000    -1.414000000
H    -8.166000000    -2.281000000    -0.715000000
O    -4.951000000    -5.312000000    -1.893000000
H    -5.561000000    -5.547000000    -1.194000000
H    -4.086000000    -5.382000000    -1.489000000
