215
-1443.12281
C    -3.834000000     2.142000000     1.829000000
H    -3.788000000     2.439000000     0.785000000
C    -2.755000000     2.535000000     2.623000000
C    -2.705000000     2.025000000     3.885000000
H    -1.847000000     2.250000000     4.514000000
C    -1.666000000     3.311000000     1.903000000
O    -2.075000000     4.356000000     1.037000000
H    -1.179000000     2.621000000     1.197000000
O    -0.738000000     3.806000000     2.906000000
C     0.564000000     3.573000000     2.673000000
C     1.150000000     2.585000000     3.435000000
H     0.558000000     2.039000000     4.166000000
C     2.487000000     2.250000000     3.213000000
O     3.041000000     1.188000000     3.880000000
C     3.194000000     2.977000000     2.237000000
C     4.626000000     2.501000000     1.867000000
H     5.257000000     3.284000000     1.440000000
C     4.512000000     1.384000000     0.838000000
C     4.502000000     1.688000000    -0.514000000
H     4.469000000     2.714000000    -0.871000000
H     5.239000000     2.124000000     2.688000000
C     2.606000000     3.960000000     1.523000000
H     3.171000000     4.463000000     0.741000000
C     1.285000000     4.293000000     1.751000000
C     0.609000000     5.348000000     0.871000000
H     1.356000000     6.105000000     0.622000000
H    -0.074000000     5.750000000     1.622000000
C    -0.136000000     4.739000000    -0.309000000
C     0.475000000     4.649000000    -1.594000000
H     1.468000000     5.077000000    -1.706000000
C    -1.528000000     4.380000000    -0.242000000
C    -2.178000000     3.916000000    -1.346000000
H    -3.243000000     3.695000000    -1.345000000
C    -1.475000000     3.628000000    -2.572000000
O    -2.114000000     3.044000000    -3.634000000
C    -1.741000000     1.660000000    -3.836000000
C    -2.938000000     0.815000000    -4.038000000
C    -2.906000000    -0.518000000    -4.628000000
H    -1.960000000    -0.903000000    -5.001000000
C    -4.172000000     1.254000000    -3.526000000
H    -4.278000000     2.223000000    -3.045000000
O    -0.839000000     1.352000000    -4.916000000
H    -1.201000000     1.362000000    -2.925000000
C    -0.132000000     4.103000000    -2.695000000
C     0.616000000     3.822000000    -4.063000000
H     1.399000000     4.508000000    -4.391000000
H    -0.115000000     3.853000000    -4.874000000
C     1.197000000     2.452000000    -3.996000000
C     2.467000000     2.240000000    -3.378000000
H     2.986000000     3.071000000    -2.906000000
C     0.451000000     1.339000000    -4.479000000
C     1.035000000     0.092000000    -4.311000000
H     0.532000000    -0.781000000    -4.718000000
C     2.277000000    -0.042000000    -3.874000000
O     2.826000000    -1.319000000    -3.795000000
C     2.881000000    -1.906000000    -2.421000000
C     2.327000000    -3.340000000    -2.395000000
C     1.459000000    -3.752000000    -3.349000000
H     1.236000000    -3.091000000    -4.183000000
C     2.628000000    -4.178000000    -1.276000000
H     3.271000000    -3.802000000    -0.485000000
O     4.230000000    -1.788000000    -1.877000000
H     2.199000000    -1.319000000    -1.788000000
C     3.065000000     0.999000000    -3.397000000
C     4.517000000     0.856000000    -2.923000000
H     5.152000000     1.705000000    -3.185000000
H     5.016000000    -0.009000000    -3.365000000
C     4.588000000     0.620000000    -1.442000000
C     4.469000000    -0.732000000    -1.062000000
C     4.264000000    -0.892000000     0.276000000
H     4.253000000    -1.941000000     0.560000000
C     4.483000000     0.084000000     1.226000000
O     4.372000000    -0.300000000     2.532000000
C     3.044000000    -0.067000000     3.198000000
H     2.333000000    -0.011000000     2.361000000
C     2.595000000    -1.183000000     4.083000000
C     1.541000000    -0.976000000     5.013000000
H     1.162000000     0.026000000     5.197000000
C     3.031000000    -2.508000000     3.875000000
H     3.713000000    -2.780000000     3.073000000
C     2.590000000    -3.566000000     4.732000000
O     3.089000000    -4.845000000     4.516000000
C     1.615000000    -3.293000000     5.668000000
H     1.129000000    -4.036000000     6.295000000
C     1.067000000    -2.053000000     5.799000000
O     0.073000000    -1.953000000     6.755000000
C    -0.710000000    -0.876000000     6.932000000
C    -1.822000000    -0.609000000     6.127000000
H    -2.107000000    -1.143000000     5.224000000
C    -0.425000000    -0.024000000     8.044000000
H     0.446000000    -0.157000000     8.681000000
C    -1.220000000     1.127000000     8.262000000
H    -1.002000000     1.894000000     9.000000000
C    -2.282000000     1.417000000     7.392000000
H    -2.914000000     2.298000000     7.463000000
C    -2.567000000     0.527000000     6.446000000
O    -3.660000000     0.727000000     5.719000000
C    -3.745000000     1.233000000     4.411000000
C    -4.807000000     0.932000000     3.594000000
H    -5.650000000     0.376000000     3.995000000
C    -4.874000000     1.422000000     2.361000000
O    -6.064000000     1.187000000     1.691000000
C    -6.386000000     1.829000000     0.502000000
C    -6.256000000     1.026000000    -0.656000000
H    -5.940000000    -0.011000000    -0.576000000
C    -6.585000000     3.185000000     0.356000000
H    -6.633000000     3.777000000     1.266000000
C    -6.910000000     3.670000000    -0.873000000
H    -7.223000000     4.706000000    -0.975000000
C    -6.911000000     2.859000000    -2.045000000
H    -7.125000000     3.368000000    -2.982000000
C    -6.544000000     1.536000000    -1.958000000
O    -6.496000000     0.781000000    -3.105000000
C    -5.317000000     0.427000000    -3.699000000
C    -5.238000000    -0.789000000    -4.366000000
H    -6.178000000    -1.333000000    -4.412000000
C    -4.038000000    -1.295000000    -4.729000000
O    -3.918000000    -2.579000000    -5.162000000
C    -2.770000000    -3.253000000    -5.552000000
C    -2.077000000    -3.997000000    -4.634000000
H    -2.538000000    -4.182000000    -3.667000000
C    -2.288000000    -3.090000000    -6.875000000
H    -2.840000000    -2.525000000    -7.622000000
C    -1.062000000    -3.735000000    -7.225000000
H    -0.673000000    -3.676000000    -8.239000000
C    -0.271000000    -4.374000000    -6.270000000
H     0.655000000    -4.873000000    -6.545000000
C    -0.819000000    -4.542000000    -4.979000000
O    -0.186000000    -5.402000000    -4.086000000
C     0.752000000    -4.967000000    -3.165000000
C     1.038000000    -5.811000000    -2.088000000
H     0.654000000    -6.818000000    -1.945000000
C     2.045000000    -5.415000000    -1.179000000
O     2.330000000    -6.226000000    -0.136000000
C     3.154000000    -5.925000000     0.976000000
C     4.535000000    -6.139000000     0.801000000
H     4.809000000    -6.569000000    -0.159000000
C     5.441000000    -5.712000000     1.797000000
H     6.494000000    -5.711000000     1.526000000
C     4.925000000    -5.281000000     3.082000000
H     5.645000000    -4.957000000     3.829000000
C     3.564000000    -5.157000000     3.251000000
C     2.714000000    -5.438000000     2.191000000
H     1.673000000    -5.129000000     2.243000000
C    -2.054000000    -0.939000000    -0.260000000
H    -2.630000000    -1.301000000    -1.108000000
C    -0.831000000    -0.296000000    -0.425000000
H    -0.360000000    -0.235000000    -1.403000000
C    -0.118000000    -0.020000000     0.697000000
H     0.906000000     0.429000000     0.574000000
C    -0.560000000    -0.213000000     1.946000000
H    -0.063000000     0.325000000     2.749000000
C    -1.731000000    -0.855000000     2.147000000
H    -2.018000000    -1.052000000     3.177000000
C    -2.494000000    -1.266000000     1.030000000
C    -3.696000000    -2.089000000     1.255000000
O    -3.768000000    -2.558000000     2.339000000
O    -4.355000000    -2.512000000     0.326000000
O    -3.476000000    -5.880000000    -1.392000000
H    -3.433000000    -5.387000000    -0.573000000
H    -4.207000000    -6.486000000    -1.269000000
O    -4.204000000    -8.007000000     1.706000000
H    -4.308000000    -8.439000000     0.859000000
H    -4.139000000    -7.076000000     1.494000000
O    -6.647000000    -2.104000000     2.274000000
H    -6.122000000    -2.485000000     1.571000000
H    -6.064000000    -2.099000000     3.033000000
O    -2.230000000    -3.814000000     4.004000000
H    -2.653000000    -3.979000000     4.846000000
H    -2.885000000    -3.334000000     3.497000000
O    -7.660000000    -5.559000000     0.073000000
H    -7.522000000    -6.505000000     0.132000000
H    -7.868000000    -5.292000000     0.969000000
O    -3.652000000    -5.262000000     1.236000000
H    -3.875000000    -4.335000000     1.323000000
H    -2.720000000    -5.305000000     1.450000000
O    -8.893000000    -0.310000000     2.545000000
H    -8.787000000     0.288000000     1.805000000
H    -8.089000000    -0.830000000     2.549000000
O    -1.663000000    -7.662000000    -1.808000000
H    -2.207000000    -6.885000000    -1.684000000
H    -1.413000000    -7.924000000    -0.922000000
O    -5.249000000    -1.229000000     7.435000000
H    -5.845000000    -1.902000000     7.105000000
H    -4.677000000    -1.031000000     6.693000000
O    -0.691000000    -7.652000000     0.739000000
H     0.094000000    -8.170000000     0.918000000
H    -0.651000000    -6.931000000     1.367000000
O    -8.965000000    -3.688000000     2.898000000
H    -8.640000000    -4.587000000     2.847000000
H    -8.206000000    -3.146000000     2.682000000
O    -0.638000000    -5.458000000     2.419000000
H    -0.955000000    -4.957000000     3.171000000
H    -0.320000000    -4.796000000     1.806000000
O    -3.616000000    -4.125000000     6.540000000
H    -2.918000000    -4.363000000     7.150000000
H    -4.158000000    -4.912000000     6.478000000
O    -4.805000000    -2.150000000     4.909000000
H    -4.338000000    -2.060000000     4.079000000
H    -4.389000000    -2.899000000     5.338000000
O    -0.327000000    -3.434000000     0.668000000
H     0.103000000    -3.391000000    -0.186000000
H    -0.484000000    -2.520000000     0.903000000
O    -5.821000000    -3.628000000    -1.402000000
H    -6.254000000    -4.342000000    -0.936000000
H    -5.278000000    -3.202000000    -0.739000000
O    -8.278000000    -2.732000000    -2.988000000
H    -7.332000000    -2.754000000    -2.842000000
H    -8.616000000    -3.471000000    -2.482000000
O    -5.879000000    -5.286000000    -3.525000000
H    -6.785000000    -5.169000000    -3.813000000
H    -5.703000000    -4.523000000    -2.974000000
O    -5.608000000    -5.859000000     5.810000000
H    -5.320000000    -6.736000000     5.559000000
H    -6.224000000    -5.603000000     5.123000000
