215
-1454.08587
C    -2.889000000     2.019000000     3.550000000
H    -3.467000000     2.562000000     2.806000000
C    -1.507000000     2.135000000     3.522000000
C    -0.754000000     1.333000000     4.369000000
H     0.324000000     1.390000000     4.243000000
C    -0.808000000     3.005000000     2.424000000
O    -1.668000000     4.153000000     2.061000000
H    -0.587000000     2.443000000     1.505000000
O     0.407000000     3.523000000     3.001000000
C     1.469000000     3.415000000     2.125000000
C     2.456000000     2.537000000     2.515000000
H     2.448000000     2.056000000     3.490000000
C     3.511000000     2.330000000     1.634000000
O     4.304000000     1.276000000     1.889000000
C     3.733000000     3.122000000     0.511000000
C     4.835000000     2.835000000    -0.427000000
H     5.076000000     3.757000000    -0.960000000
C     4.519000000     1.789000000    -1.450000000
C     3.752000000     2.076000000    -2.632000000
H     3.371000000     3.073000000    -2.840000000
H     5.709000000     2.479000000     0.124000000
C     2.826000000     4.178000000     0.273000000
H     3.093000000     4.793000000    -0.583000000
C     1.742000000     4.388000000     1.123000000
C     0.693000000     5.461000000     0.786000000
H     1.217000000     6.230000000     0.216000000
H     0.364000000     5.991000000     1.682000000
C    -0.540000000     4.862000000     0.039000000
C    -0.574000000     4.860000000    -1.371000000
H     0.268000000     5.300000000    -1.900000000
C    -1.640000000     4.304000000     0.714000000
C    -2.743000000     3.838000000    -0.005000000
H    -3.483000000     3.250000000     0.533000000
C    -2.704000000     3.896000000    -1.338000000
O    -3.762000000     3.239000000    -1.882000000
C    -3.414000000     1.901000000    -2.290000000
C    -4.512000000     0.908000000    -1.865000000
C    -4.513000000    -0.428000000    -2.370000000
H    -3.780000000    -0.720000000    -3.118000000
C    -5.418000000     1.211000000    -0.876000000
H    -5.316000000     2.204000000    -0.446000000
O    -3.058000000     1.643000000    -3.684000000
H    -2.610000000     1.625000000    -1.592000000
C    -1.610000000     4.262000000    -2.059000000
C    -1.440000000     4.039000000    -3.580000000
H    -0.802000000     4.803000000    -4.028000000
H    -2.415000000     4.236000000    -4.032000000
C    -0.865000000     2.708000000    -3.908000000
C     0.528000000     2.595000000    -4.055000000
H     1.100000000     3.496000000    -3.850000000
C    -1.658000000     1.574000000    -4.024000000
C    -1.128000000     0.347000000    -4.198000000
H    -1.749000000    -0.546000000    -4.185000000
C     0.248000000     0.300000000    -4.417000000
O     0.735000000    -0.955000000    -4.534000000
C     1.529000000    -1.495000000    -3.443000000
C     1.139000000    -2.954000000    -3.254000000
C    -0.045000000    -3.502000000    -3.711000000
H    -0.799000000    -2.876000000    -4.180000000
C     1.944000000    -3.839000000    -2.487000000
H     2.887000000    -3.496000000    -2.069000000
O     2.988000000    -1.401000000    -3.729000000
H     1.321000000    -0.913000000    -2.534000000
C     1.131000000     1.402000000    -4.394000000
C     2.625000000     1.346000000    -4.665000000
H     2.900000000     2.286000000    -5.147000000
H     2.834000000     0.580000000    -5.415000000
C     3.360000000     1.018000000    -3.453000000
C     3.596000000    -0.319000000    -3.084000000
C     4.228000000    -0.597000000    -1.915000000
H     4.287000000    -1.628000000    -1.575000000
C     4.702000000     0.478000000    -1.087000000
O     5.110000000     0.022000000     0.154000000
C     4.069000000    -0.047000000     1.216000000
H     3.011000000    -0.072000000     0.917000000
C     4.314000000    -1.282000000     2.126000000
C     4.003000000    -1.146000000     3.499000000
H     3.657000000    -0.202000000     3.912000000
C     4.783000000    -2.480000000     1.632000000
H     5.080000000    -2.539000000     0.588000000
C     4.931000000    -3.583000000     2.509000000
O     5.272000000    -4.797000000     1.957000000
C     4.682000000    -3.422000000     3.911000000
H     4.784000000    -4.331000000     4.499000000
C     4.199000000    -2.189000000     4.383000000
O     4.047000000    -2.006000000     5.751000000
C     3.038000000    -1.118000000     6.195000000
C     1.695000000    -1.157000000     5.825000000
H     1.399000000    -1.897000000     5.085000000
C     3.429000000    -0.043000000     7.008000000
H     4.465000000     0.061000000     7.319000000
C     2.431000000     0.863000000     7.583000000
H     2.723000000     1.659000000     8.263000000
C     1.097000000     0.683000000     7.263000000
H     0.341000000     1.364000000     7.645000000
C     0.719000000    -0.298000000     6.342000000
O    -0.575000000    -0.414000000     6.042000000
C    -1.318000000     0.524000000     5.346000000
C    -2.696000000     0.552000000     5.474000000
H    -3.216000000     0.100000000     6.315000000
C    -3.475000000     1.346000000     4.616000000
O    -4.835000000     1.390000000     4.820000000
C    -5.835000000     1.611000000     3.885000000
C    -5.906000000     0.979000000     2.630000000
H    -5.131000000     0.255000000     2.394000000
C    -6.912000000     2.416000000     4.258000000
H    -6.976000000     2.768000000     5.285000000
C    -7.926000000     2.771000000     3.371000000
H    -8.734000000     3.461000000     3.603000000
C    -7.819000000     2.262000000     2.067000000
H    -8.604000000     2.479000000     1.347000000
C    -6.916000000     1.304000000     1.725000000
O    -7.227000000     0.646000000     0.522000000
C    -6.284000000     0.266000000    -0.391000000
C    -6.275000000    -1.021000000    -0.902000000
H    -6.835000000    -1.864000000    -0.507000000
C    -5.364000000    -1.409000000    -1.883000000
O    -5.366000000    -2.710000000    -2.363000000
C    -4.603000000    -3.286000000    -3.410000000
C    -3.369000000    -3.896000000    -3.206000000
H    -2.859000000    -3.918000000    -2.246000000
C    -5.165000000    -3.171000000    -4.697000000
H    -6.160000000    -2.738000000    -4.766000000
C    -4.562000000    -3.831000000    -5.830000000
H    -5.032000000    -3.956000000    -6.803000000
C    -3.339000000    -4.510000000    -5.546000000
H    -2.870000000    -5.115000000    -6.318000000
C    -2.703000000    -4.517000000    -4.240000000
O    -1.538000000    -5.283000000    -4.165000000
C    -0.351000000    -4.835000000    -3.542000000
C     0.475000000    -5.705000000    -2.937000000
H     0.226000000    -6.757000000    -2.822000000
C     1.635000000    -5.203000000    -2.410000000
O     2.418000000    -6.069000000    -1.674000000
C     3.635000000    -5.626000000    -1.246000000
C     4.707000000    -5.651000000    -2.154000000
H     4.467000000    -6.023000000    -3.146000000
C     5.968000000    -5.453000000    -1.659000000
H     6.828000000    -5.526000000    -2.320000000
C     6.140000000    -5.223000000    -0.288000000
H     7.112000000    -4.913000000     0.090000000
C     5.099000000    -5.218000000     0.627000000
C     3.819000000    -5.307000000     0.143000000
H     2.972000000    -5.219000000     0.819000000
C    -2.454000000    -1.469000000     0.376000000
H    -3.457000000    -1.661000000     0.002000000
C    -1.574000000    -0.714000000    -0.349000000
H    -1.956000000    -0.315000000    -1.285000000
C    -0.289000000    -0.523000000     0.129000000
H     0.464000000    -0.014000000    -0.496000000
C     0.126000000    -1.119000000     1.329000000
H     1.180000000    -1.002000000     1.570000000
C    -0.815000000    -1.817000000     2.109000000
H    -0.570000000    -2.339000000     3.030000000
C    -2.124000000    -2.085000000     1.662000000
C    -3.169000000    -2.789000000     2.507000000
O    -2.954000000    -3.005000000     3.697000000
O    -4.246000000    -3.084000000     1.991000000
O    -3.889000000    -3.749000000     7.699000000
H    -3.328000000    -4.524000000     7.669000000
H    -3.314000000    -3.028000000     7.442000000
O    -0.949000000    -4.882000000     3.495000000
H    -1.679000000    -4.264000000     3.447000000
H    -1.158000000    -5.441000000     4.243000000
O    -4.251000000    -4.771000000    -0.046000000
H    -4.950000000    -4.382000000    -0.573000000
H    -4.141000000    -4.167000000     0.688000000
O    -4.434000000    -8.645000000     2.841000000
H    -3.674000000    -9.172000000     3.085000000
H    -4.858000000    -9.144000000     2.142000000
O     0.618000000    -4.578000000     6.713000000
H     0.653000000    -5.520000000     6.546000000
H    -0.269000000    -4.324000000     6.457000000
O    -5.711000000    -6.334000000     1.777000000
H    -5.121000000    -6.849000000     2.326000000
H    -5.203000000    -6.149000000     0.987000000
O    -5.137000000    -3.700000000     4.907000000
H    -4.303000000    -3.377000000     4.565000000
H    -5.079000000    -3.559000000     5.852000000
O    -6.682000000    -5.820000000     5.715000000
H    -6.066000000    -6.529000000     5.898000000
H    -6.128000000    -5.069000000     5.506000000
O    -2.545000000    -7.786000000    -0.991000000
H    -2.434000000    -7.394000000    -0.125000000
H    -3.345000000    -8.306000000    -0.917000000
O    -8.312000000    -6.493000000     0.780000000
H    -7.446000000    -6.601000000     1.172000000
H    -8.409000000    -5.547000000     0.669000000
O     1.796000000    -5.024000000     3.789000000
H     2.042000000    -4.751000000     4.673000000
H     0.977000000    -4.560000000     3.614000000
O    -9.323000000    -2.010000000     3.255000000
H    -9.663000000    -1.485000000     2.531000000
H    -8.392000000    -2.113000000     3.059000000
O    -6.287000000    -0.983000000     5.701000000
H    -5.905000000    -1.850000000     5.562000000
H    -5.787000000    -0.406000000     5.124000000
O    -8.646000000    -3.734000000     0.999000000
H    -9.193000000    -3.944000000     1.756000000
H    -7.951000000    -3.179000000     1.352000000
O    -1.517000000    -6.723000000     5.300000000
H    -1.228000000    -7.064000000     6.146000000
H    -1.943000000    -7.467000000     4.874000000
O    -1.831000000    -6.279000000     1.281000000
H    -2.425000000    -5.674000000     0.839000000
H    -1.176000000    -5.715000000     1.693000000
O    -4.397000000    -7.893000000     6.047000000
H    -3.763000000    -7.286000000     6.429000000
H    -3.938000000    -8.280000000     5.301000000
O    -1.497000000    -2.969000000     6.052000000
H    -1.904000000    -3.123000000     5.199000000
H    -1.280000000    -2.037000000     6.049000000
O    -6.640000000    -2.463000000     2.882000000
H    -5.809000000    -2.361000000     2.418000000
H    -6.471000000    -3.148000000     3.529000000
