215
-1467.51487
C    -3.614000000     2.852000000     2.788000000
H    -3.822000000     3.457000000     1.909000000
C    -2.258000000     2.741000000     3.074000000
C    -1.840000000     2.157000000     4.271000000
H    -0.790000000     2.188000000     4.553000000
C    -1.173000000     3.337000000     2.152000000
O    -1.709000000     4.376000000     1.322000000
H    -0.713000000     2.571000000     1.511000000
O    -0.073000000     3.913000000     2.877000000
C     1.152000000     3.670000000     2.288000000
C     1.994000000     2.733000000     2.901000000
H     1.725000000     2.222000000     3.822000000
C     3.221000000     2.383000000     2.337000000
O     3.766000000     1.237000000     2.877000000
C     3.618000000     3.007000000     1.127000000
C     4.894000000     2.509000000     0.453000000
H     5.411000000     3.237000000    -0.175000000
C     4.605000000     1.323000000    -0.473000000
C     4.545000000     1.456000000    -1.852000000
H     4.672000000     2.434000000    -2.310000000
H     5.641000000     2.203000000     1.189000000
C     2.906000000     4.056000000     0.527000000
H     3.291000000     4.475000000    -0.400000000
C     1.694000000     4.432000000     1.209000000
C     0.841000000     5.507000000     0.455000000
H     1.428000000     6.229000000    -0.115000000
H     0.352000000     6.128000000     1.209000000
C    -0.183000000     4.875000000    -0.452000000
C     0.217000000     4.788000000    -1.791000000
H     1.238000000     5.063000000    -2.044000000
C    -1.330000000     4.333000000    -0.012000000
C    -2.246000000     3.650000000    -0.832000000
H    -3.160000000     3.222000000    -0.429000000
C    -1.933000000     3.568000000    -2.160000000
O    -2.759000000     2.810000000    -2.969000000
C    -2.399000000     1.450000000    -3.214000000
C    -3.628000000     0.619000000    -3.056000000
C    -3.672000000    -0.517000000    -3.854000000
H    -2.850000000    -0.771000000    -4.519000000
C    -4.588000000     0.882000000    -2.067000000
H    -4.396000000     1.740000000    -1.428000000
O    -1.794000000     1.422000000    -4.495000000
H    -1.683000000     1.102000000    -2.455000000
C    -0.680000000     4.082000000    -2.603000000
C    -0.246000000     3.788000000    -4.058000000
H     0.475000000     4.558000000    -4.341000000
H    -1.122000000     3.966000000    -4.685000000
C     0.359000000     2.354000000    -4.210000000
C     1.719000000     2.174000000    -4.080000000
H     2.312000000     3.069000000    -3.914000000
C    -0.466000000     1.283000000    -4.404000000
C     0.083000000     0.011000000    -4.446000000
H    -0.590000000    -0.800000000    -4.712000000
C     1.400000000    -0.231000000    -4.215000000
O     1.858000000    -1.499000000    -4.201000000
C     2.233000000    -2.034000000    -2.999000000
C     1.759000000    -3.409000000    -2.802000000
C     0.411000000    -3.708000000    -3.096000000
H    -0.268000000    -3.071000000    -3.655000000
C     2.591000000    -4.359000000    -2.147000000
H     3.595000000    -4.131000000    -1.798000000
O     3.674000000    -2.072000000    -2.729000000
H     1.757000000    -1.395000000    -2.240000000
C     2.246000000     0.894000000    -4.111000000
C     3.725000000     0.643000000    -4.048000000
H     4.269000000     1.437000000    -4.563000000
H     3.904000000    -0.261000000    -4.634000000
C     4.204000000     0.400000000    -2.648000000
C     4.090000000    -0.878000000    -2.057000000
C     4.375000000    -1.071000000    -0.753000000
H     4.196000000    -2.045000000    -0.306000000
C     4.553000000     0.005000000     0.072000000
O     4.691000000    -0.324000000     1.427000000
C     3.487000000    -0.016000000     2.209000000
H     2.630000000     0.098000000     1.529000000
C     3.225000000    -1.140000000     3.217000000
C     2.730000000    -0.733000000     4.497000000
H     2.472000000     0.318000000     4.594000000
C     3.357000000    -2.483000000     2.977000000
H     3.758000000    -2.738000000     1.999000000
C     3.029000000    -3.419000000     3.926000000
O     3.062000000    -4.795000000     3.534000000
C     2.587000000    -2.967000000     5.197000000
H     2.401000000    -3.683000000     5.994000000
C     2.367000000    -1.653000000     5.460000000
O     1.858000000    -1.347000000     6.716000000
C     1.073000000    -0.327000000     7.009000000
C    -0.214000000    -0.247000000     6.464000000
H    -0.719000000    -1.048000000     5.932000000
C     1.514000000     0.731000000     7.750000000
H     2.558000000     0.691000000     8.051000000
C     0.698000000     1.896000000     7.927000000
H     1.097000000     2.758000000     8.457000000
C    -0.616000000     1.938000000     7.492000000
H    -1.262000000     2.782000000     7.721000000
C    -1.053000000     0.820000000     6.798000000
O    -2.362000000     0.820000000     6.246000000
C    -2.765000000     1.599000000     5.153000000
C    -4.140000000     1.602000000     4.863000000
H    -4.898000000     1.107000000     5.465000000
C    -4.538000000     2.317000000     3.728000000
O    -5.841000000     2.370000000     3.349000000
C    -6.202000000     2.372000000     1.985000000
C    -6.153000000     1.212000000     1.182000000
H    -5.796000000     0.305000000     1.664000000
C    -6.633000000     3.573000000     1.399000000
H    -6.604000000     4.520000000     1.931000000
C    -6.957000000     3.614000000     0.086000000
H    -7.238000000     4.552000000    -0.385000000
C    -7.027000000     2.441000000    -0.671000000
H    -7.262000000     2.544000000    -1.727000000
C    -6.667000000     1.214000000    -0.136000000
O    -6.548000000     0.061000000    -0.917000000
C    -5.624000000    -0.053000000    -1.898000000
C    -5.833000000    -1.057000000    -2.833000000
H    -6.733000000    -1.665000000    -2.852000000
C    -4.792000000    -1.372000000    -3.682000000
O    -4.887000000    -2.516000000    -4.388000000
C    -3.954000000    -3.448000000    -4.663000000
C    -3.046000000    -3.939000000    -3.701000000
H    -3.188000000    -3.639000000    -2.666000000
C    -3.922000000    -3.905000000    -5.956000000
H    -4.645000000    -3.559000000    -6.690000000
C    -2.917000000    -4.723000000    -6.428000000
H    -2.970000000    -5.050000000    -7.464000000
C    -1.984000000    -5.238000000    -5.456000000
H    -1.179000000    -5.913000000    -5.735000000
C    -2.024000000    -4.781000000    -4.086000000
O    -1.245000000    -5.429000000    -3.213000000
C    -0.008000000    -5.041000000    -2.872000000
C     0.739000000    -5.969000000    -2.197000000
H     0.332000000    -6.952000000    -1.977000000
C     2.035000000    -5.594000000    -1.763000000
O     2.631000000    -6.454000000    -0.851000000
C     3.508000000    -6.050000000     0.134000000
C     4.903000000    -6.097000000     0.003000000
H     5.287000000    -6.432000000    -0.958000000
C     5.666000000    -5.864000000     1.117000000
H     6.744000000    -5.999000000     1.112000000
C     5.027000000    -5.420000000     2.293000000
H     5.555000000    -5.413000000     3.244000000
C     3.649000000    -5.293000000     2.377000000
C     2.896000000    -5.693000000     1.290000000
H     1.831000000    -5.476000000     1.270000000
C    -2.084000000    -1.372000000     0.005000000
H    -2.779000000    -1.729000000    -0.752000000
C    -0.947000000    -0.832000000    -0.630000000
H    -0.812000000    -0.853000000    -1.708000000
C     0.031000000    -0.243000000     0.189000000
H     0.906000000     0.128000000    -0.182000000
C    -0.176000000    -0.128000000     1.556000000
H     0.529000000     0.451000000     2.147000000
C    -1.304000000    -0.701000000     2.149000000
H    -1.412000000    -0.688000000     3.230000000
C    -2.252000000    -1.361000000     1.404000000
C    -3.514000000    -2.020000000     2.002000000
O    -3.595000000    -2.220000000     3.243000000
O    -4.450000000    -2.418000000     1.276000000
O    -7.249000000    -5.938000000     2.120000000
H    -6.390000000    -5.642000000     1.821000000
H    -7.061000000    -6.678000000     2.697000000
O    -3.037000000    -6.791000000    -0.869000000
H    -3.080000000    -6.990000000    -1.804000000
H    -3.436000000    -5.925000000    -0.789000000
O    -7.049000000    -2.252000000     0.890000000
H    -6.183000000    -2.413000000     1.263000000
H    -6.878000000    -2.030000000    -0.025000000
O     0.249000000    -5.768000000     4.492000000
H     0.795000000    -5.496000000     5.230000000
H     0.343000000    -5.064000000     3.851000000
O    -4.686000000    -4.734000000     2.817000000
H    -4.397000000    -3.870000000     2.522000000
H    -3.900000000    -5.278000000     2.771000000
O    -7.503000000    -3.622000000     6.710000000
H    -6.768000000    -4.219000000     6.850000000
H    -7.307000000    -3.193000000     5.877000000
O    -7.781000000    -0.482000000     5.375000000
H    -7.884000000    -0.797000000     6.273000000
H    -7.968000000     0.455000000     5.427000000
O    -3.326000000    -7.632000000     4.234000000
H    -2.760000000    -8.014000000     4.905000000
H    -2.829000000    -7.725000000     3.421000000
O    -4.970000000    -5.616000000     5.644000000
H    -4.046000000    -5.857000000     5.707000000
H    -5.052000000    -5.204000000     4.784000000
O    -9.685000000    -2.536000000     1.051000000
H    -9.827000000    -2.135000000     1.908000000
H    -8.775000000    -2.329000000     0.837000000
O    -0.206000000    -3.645000000     2.881000000
H    -0.771000000    -4.265000000     2.420000000
H    -0.275000000    -2.836000000     2.376000000
O    -3.268000000    -2.562000000     7.378000000
H    -2.668000000    -2.691000000     6.643000000
H    -4.073000000    -2.236000000     6.976000000
O    -7.194000000    -3.175000000     3.677000000
H    -7.414000000    -2.635000000     2.918000000
H    -6.266000000    -3.378000000     3.565000000
O    -1.801000000    -5.479000000     1.528000000
H    -1.726000000    -6.377000000     1.850000000
H    -2.136000000    -5.572000000     0.636000000
O    -4.240000000    -4.459000000    -0.247000000
H    -5.164000000    -4.406000000    -0.491000000
H    -4.065000000    -3.636000000     0.209000000
O    -9.545000000    -1.164000000     3.449000000
H   -10.190000000    -0.848000000     4.081000000
H    -8.840000000    -1.526000000     3.986000000
O    -8.353000000    -4.771000000    -0.025000000
H    -8.246000000    -3.873000000     0.290000000
H    -7.942000000    -5.312000000     0.649000000
O    -2.134000000    -3.674000000     5.026000000
H    -2.712000000    -3.225000000     4.409000000
H    -1.279000000    -3.678000000     4.594000000
O    -5.225000000    -1.970000000     5.445000000
H    -4.584000000    -1.856000000     4.744000000
H    -6.053000000    -1.678000000     5.063000000
