215
-1466.41564
C    -2.875000000     1.927000000     4.098000000
H    -3.535000000     2.581000000     3.535000000
C    -1.458000000     1.919000000     4.111000000
C    -0.760000000     1.179000000     5.044000000
H     0.320000000     1.255000000     5.137000000
C    -0.736000000     2.794000000     3.073000000
O    -1.471000000     3.864000000     2.529000000
H    -0.383000000     2.174000000     2.236000000
O     0.451000000     3.334000000     3.670000000
C     1.560000000     3.490000000     2.809000000
C     2.517000000     2.507000000     3.021000000
H     2.354000000     1.833000000     3.858000000
C     3.622000000     2.309000000     2.150000000
O     4.443000000     1.191000000     2.371000000
C     3.774000000     3.107000000     1.033000000
C     4.853000000     2.917000000    -0.045000000
H     5.085000000     3.913000000    -0.428000000
C     4.403000000     1.945000000    -1.094000000
C     3.766000000     2.364000000    -2.215000000
H     3.846000000     3.424000000    -2.444000000
H     5.722000000     2.576000000     0.523000000
C     2.834000000     4.103000000     0.842000000
H     2.823000000     4.748000000    -0.033000000
C     1.739000000     4.294000000     1.708000000
C     0.618000000     5.323000000     1.428000000
H     1.103000000     6.224000000     1.046000000
H     0.145000000     5.745000000     2.317000000
C    -0.529000000     4.755000000     0.589000000
C    -0.513000000     4.894000000    -0.816000000
H     0.293000000     5.425000000    -1.316000000
C    -1.421000000     3.984000000     1.186000000
C    -2.339000000     3.271000000     0.454000000
H    -3.145000000     2.668000000     0.865000000
C    -2.436000000     3.432000000    -0.950000000
O    -3.449000000     2.791000000    -1.590000000
C    -3.100000000     1.583000000    -2.350000000
C    -4.175000000     0.490000000    -2.034000000
C    -4.548000000    -0.433000000    -3.030000000
H    -4.082000000    -0.278000000    -3.999000000
C    -4.712000000     0.340000000    -0.793000000
H    -4.430000000     1.007000000     0.017000000
O    -2.909000000     1.989000000    -3.728000000
H    -2.165000000     1.131000000    -1.985000000
C    -1.488000000     4.280000000    -1.547000000
C    -1.440000000     4.509000000    -3.056000000
H    -0.856000000     5.424000000    -3.173000000
H    -2.468000000     4.717000000    -3.362000000
C    -0.847000000     3.328000000    -3.753000000
C     0.563000000     3.264000000    -4.025000000
H     1.176000000     4.123000000    -3.765000000
C    -1.601000000     2.195000000    -4.076000000
C    -1.004000000     1.072000000    -4.588000000
H    -1.599000000     0.188000000    -4.803000000
C     0.400000000     0.925000000    -4.638000000
O     0.923000000    -0.308000000    -4.883000000
C     1.514000000    -0.951000000    -3.783000000
C     1.090000000    -2.380000000    -3.703000000
C    -0.013000000    -2.852000000    -4.438000000
H    -0.534000000    -2.202000000    -5.137000000
C     1.563000000    -3.180000000    -2.637000000
H     2.278000000    -2.815000000    -1.904000000
O     2.931000000    -0.829000000    -3.885000000
H     1.113000000    -0.519000000    -2.854000000
C     1.177000000     2.049000000    -4.424000000
C     2.757000000     1.997000000    -4.482000000
H     3.058000000     3.045000000    -4.545000000
H     2.997000000     1.434000000    -5.386000000
C     3.342000000     1.483000000    -3.256000000
C     3.443000000     0.079000000    -3.020000000
C     4.003000000    -0.343000000    -1.798000000
H     4.138000000    -1.407000000    -1.619000000
C     4.473000000     0.558000000    -0.865000000
O     4.919000000     0.123000000     0.368000000
C     4.053000000     0.101000000     1.488000000
H     2.999000000     0.225000000     1.198000000
C     4.202000000    -1.172000000     2.274000000
C     3.765000000    -1.237000000     3.541000000
H     3.283000000    -0.321000000     3.874000000
C     4.660000000    -2.299000000     1.584000000
H     4.821000000    -2.213000000     0.512000000
C     4.723000000    -3.469000000     2.298000000
O     5.024000000    -4.707000000     1.730000000
C     4.442000000    -3.464000000     3.659000000
H     4.636000000    -4.316000000     4.305000000
C     3.919000000    -2.359000000     4.286000000
O     3.599000000    -2.420000000     5.632000000
C     2.739000000    -1.678000000     6.403000000
C     1.340000000    -1.522000000     6.217000000
H     0.887000000    -2.132000000     5.440000000
C     3.370000000    -0.918000000     7.384000000
H     4.457000000    -0.940000000     7.378000000
C     2.621000000    -0.112000000     8.206000000
H     3.074000000     0.408000000     9.045000000
C     1.247000000     0.040000000     8.041000000
H     0.719000000     0.684000000     8.740000000
C     0.603000000    -0.589000000     6.999000000
O    -0.781000000    -0.472000000     6.871000000
C    -1.398000000     0.381000000     5.957000000
C    -2.798000000     0.228000000     5.730000000
H    -3.297000000    -0.478000000     6.389000000
C    -3.567000000     0.966000000     4.853000000
O    -4.965000000     0.864000000     4.804000000
C    -5.653000000     1.045000000     3.611000000
C    -5.659000000    -0.016000000     2.678000000
H    -5.094000000    -0.920000000     2.888000000
C    -6.335000000     2.241000000     3.448000000
H    -6.465000000     3.020000000     4.195000000
C    -6.985000000     2.454000000     2.245000000
H    -7.563000000     3.364000000     2.104000000
C    -6.957000000     1.473000000     1.329000000
H    -7.449000000     1.669000000     0.380000000
C    -6.395000000     0.205000000     1.556000000
O    -6.488000000    -0.735000000     0.581000000
C    -5.731000000    -0.670000000    -0.592000000
C    -5.967000000    -1.611000000    -1.540000000
H    -6.708000000    -2.381000000    -1.343000000
C    -5.323000000    -1.508000000    -2.788000000
O    -5.593000000    -2.394000000    -3.695000000
C    -4.788000000    -2.897000000    -4.647000000
C    -3.538000000    -3.416000000    -4.315000000
H    -3.228000000    -3.469000000    -3.275000000
C    -5.132000000    -2.744000000    -5.964000000
H    -5.909000000    -2.050000000    -6.272000000
C    -4.365000000    -3.380000000    -6.886000000
H    -4.683000000    -3.284000000    -7.921000000
C    -3.148000000    -4.031000000    -6.597000000
H    -2.610000000    -4.535000000    -7.396000000
C    -2.733000000    -4.001000000    -5.278000000
O    -1.596000000    -4.670000000    -4.957000000
C    -0.506000000    -4.140000000    -4.265000000
C     0.132000000    -5.037000000    -3.387000000
H    -0.255000000    -6.033000000    -3.185000000
C     1.188000000    -4.555000000    -2.573000000
O     1.558000000    -5.353000000    -1.537000000
C     2.901000000    -5.448000000    -1.109000000
C     3.855000000    -5.923000000    -2.020000000
H     3.592000000    -6.323000000    -2.996000000
C     5.208000000    -5.956000000    -1.663000000
H     5.969000000    -6.321000000    -2.348000000
C     5.660000000    -5.503000000    -0.435000000
H     6.731000000    -5.519000000    -0.254000000
C     4.682000000    -5.092000000     0.465000000
C     3.304000000    -5.006000000     0.157000000
H     2.652000000    -4.729000000     0.981000000
C    -1.902000000    -2.066000000    -0.557000000
H    -2.509000000    -2.650000000    -1.244000000
C    -0.850000000    -1.300000000    -1.143000000
H    -0.746000000    -1.214000000    -2.221000000
C     0.059000000    -0.617000000    -0.285000000
H     0.794000000     0.042000000    -0.782000000
C    -0.141000000    -0.535000000     1.075000000
H     0.462000000     0.115000000     1.704000000
C    -1.199000000    -1.286000000     1.608000000
H    -1.305000000    -1.243000000     2.689000000
C    -2.046000000    -2.080000000     0.829000000
C    -2.945000000    -3.115000000     1.456000000
O    -2.884000000    -3.219000000     2.654000000
O    -3.699000000    -3.787000000     0.786000000
O    -3.273000000    -3.720000000     6.570000000
H    -2.658000000    -4.419000000     6.795000000
H    -3.596000000    -3.404000000     7.414000000
O    -4.173000000    -5.898000000     2.271000000
H    -4.116000000    -5.109000000     1.732000000
H    -3.915000000    -5.610000000     3.146000000
O    -5.601000000    -4.683000000    -1.216000000
H    -6.039000000    -5.225000000    -0.560000000
H    -5.007000000    -4.128000000    -0.710000000
O    -0.273000000    -6.232000000     4.453000000
H     0.062000000    -5.342000000     4.559000000
H    -0.943000000    -6.156000000     3.773000000
O    -9.275000000    -1.965000000     1.641000000
H    -8.612000000    -2.431000000     2.150000000
H    -8.915000000    -1.929000000     0.755000000
O    -4.799000000    -3.762000000     4.517000000
H    -4.098000000    -3.583000000     3.891000000
H    -4.348000000    -3.889000000     5.352000000
O    -6.831000000    -5.843000000     4.179000000
H    -6.062000000    -6.272000000     3.804000000
H    -6.586000000    -4.919000000     4.235000000
O    -0.803000000    -8.105000000    -1.194000000
H    -0.802000000    -7.320000000    -0.646000000
H    -1.719000000    -8.220000000    -1.448000000
O    -5.201000000    -8.052000000     0.684000000
H    -4.551000000    -8.690000000     0.389000000
H    -4.684000000    -7.329000000     1.038000000
O     0.267000000    -6.430000000     1.142000000
H    -0.487000000    -6.094000000     0.657000000
H     0.951000000    -6.532000000     0.480000000
O    -7.040000000    -2.072000000     6.567000000
H    -6.520000000    -2.121000000     5.764000000
H    -7.913000000    -1.815000000     6.270000000
O    -7.408000000    -5.418000000     0.605000000
H    -7.912000000    -5.937000000     1.233000000
H    -7.154000000    -4.635000000     1.092000000
O     2.761000000    -6.890000000     2.924000000
H     2.991000000    -7.391000000     2.141000000
H     1.824000000    -6.719000000     2.833000000
O    -2.077000000    -5.712000000    -0.099000000
H    -2.491000000    -5.875000000     0.749000000
H    -2.396000000    -4.848000000    -0.359000000
O    -8.464000000    -4.958000000    -2.070000000
H    -7.763000000    -4.917000000    -1.420000000
H    -8.939000000    -5.762000000    -1.860000000
O    -3.293000000    -6.672000000     6.644000000
H    -2.693000000    -7.057000000     7.283000000
H    -3.076000000    -7.105000000     5.819000000
O    -5.583000000    -6.259000000    -3.751000000
H    -5.628000000    -7.157000000    -3.422000000
H    -5.961000000    -5.728000000    -3.050000000
O    -1.153000000    -3.388000000     4.515000000
H    -1.734000000    -3.195000000     3.780000000
H    -1.699000000    -3.263000000     5.291000000
O    -6.427000000    -3.300000000     2.373000000
H    -5.886000000    -2.955000000     1.662000000
H    -5.859000000    -3.271000000     3.142000000
