215
-1439.40501
C    -3.025000000     1.670000000     3.135000000
H    -3.412000000     1.864000000     2.138000000
C    -1.820000000     2.247000000     3.591000000
C    -1.277000000     1.905000000     4.894000000
H    -0.378000000     2.363000000     5.299000000
C    -0.986000000     3.217000000     2.668000000
O    -1.789000000     4.327000000     2.149000000
H    -0.705000000     2.511000000     1.873000000
O     0.160000000     3.748000000     3.291000000
C     1.381000000     3.623000000     2.633000000
C     2.156000000     2.473000000     2.889000000
H     1.849000000     1.944000000     3.788000000
C     3.239000000     2.221000000     2.137000000
O     3.944000000     1.038000000     2.455000000
C     3.666000000     3.066000000     1.135000000
C     4.857000000     2.583000000     0.299000000
H     5.285000000     3.463000000    -0.185000000
C     4.475000000     1.511000000    -0.807000000
C     4.137000000     1.864000000    -2.088000000
H     3.927000000     2.901000000    -2.335000000
H     5.641000000     2.193000000     0.952000000
C     2.835000000     4.134000000     0.840000000
H     3.123000000     4.721000000    -0.029000000
C     1.642000000     4.412000000     1.567000000
C     0.695000000     5.546000000     1.196000000
H     1.243000000     6.286000000     0.610000000
H     0.513000000     6.088000000     2.126000000
C    -0.471000000     5.121000000     0.299000000
C    -0.152000000     5.035000000    -1.031000000
H     0.778000000     5.392000000    -1.466000000
C    -1.627000000     4.564000000     0.819000000
C    -2.565000000     3.908000000     0.021000000
H    -3.469000000     3.466000000     0.432000000
C    -2.325000000     3.825000000    -1.364000000
O    -3.231000000     3.082000000    -2.027000000
C    -2.906000000     1.761000000    -2.450000000
C    -4.204000000     0.977000000    -2.465000000
C    -4.285000000    -0.189000000    -3.210000000
H    -3.450000000    -0.408000000    -3.871000000
C    -5.250000000     1.230000000    -1.553000000
H    -5.208000000     2.119000000    -0.929000000
O    -2.338000000     1.748000000    -3.772000000
H    -2.153000000     1.345000000    -1.764000000
C    -1.089000000     4.391000000    -1.861000000
C    -0.764000000     4.237000000    -3.333000000
H    -0.099000000     5.060000000    -3.603000000
H    -1.726000000     4.471000000    -3.791000000
C    -0.202000000     2.851000000    -3.698000000
C     1.218000000     2.766000000    -3.909000000
H     1.840000000     3.658000000    -3.877000000
C    -0.966000000     1.714000000    -3.883000000
C    -0.342000000     0.554000000    -4.391000000
H    -0.973000000    -0.300000000    -4.622000000
C     1.015000000     0.430000000    -4.560000000
O     1.472000000    -0.879000000    -4.720000000
C     2.004000000    -1.522000000    -3.520000000
C     1.639000000    -2.963000000    -3.575000000
C     0.355000000    -3.403000000    -3.825000000
H    -0.378000000    -2.606000000    -3.914000000
C     2.494000000    -3.947000000    -3.104000000
H     3.493000000    -3.716000000    -2.743000000
O     3.439000000    -1.330000000    -3.568000000
H     1.508000000    -1.103000000    -2.632000000
C     1.801000000     1.526000000    -4.265000000
C     3.352000000     1.448000000    -4.391000000
H     3.762000000     2.446000000    -4.560000000
H     3.649000000     0.764000000    -5.188000000
C     3.852000000     0.916000000    -3.008000000
C     3.942000000    -0.451000000    -2.674000000
C     4.357000000    -0.837000000    -1.367000000
H     4.512000000    -1.881000000    -1.107000000
C     4.589000000     0.132000000    -0.463000000
O     4.836000000    -0.322000000     0.823000000
C     3.688000000    -0.185000000     1.776000000
H     2.796000000    -0.096000000     1.139000000
C     3.541000000    -1.413000000     2.644000000
C     2.979000000    -1.252000000     3.928000000
H     2.860000000    -0.310000000     4.457000000
C     3.786000000    -2.642000000     2.087000000
H     4.147000000    -2.721000000     1.065000000
C     3.462000000    -3.808000000     2.785000000
O     3.409000000    -5.025000000     2.177000000
C     2.805000000    -3.615000000     4.003000000
H     2.682000000    -4.527000000     4.581000000
C     2.577000000    -2.387000000     4.562000000
O     2.068000000    -2.299000000     5.828000000
C     1.548000000    -1.162000000     6.436000000
C     0.248000000    -0.743000000     6.231000000
H    -0.401000000    -1.315000000     5.572000000
C     2.268000000    -0.595000000     7.452000000
H     3.279000000    -0.950000000     7.637000000
C     1.841000000     0.510000000     8.174000000
H     2.458000000     0.963000000     8.947000000
C     0.541000000     0.827000000     7.989000000
H     0.090000000     1.559000000     8.655000000
C    -0.262000000     0.309000000     7.016000000
O    -1.585000000     0.682000000     6.892000000
C    -2.022000000     1.102000000     5.700000000
C    -3.149000000     0.485000000     5.280000000
H    -3.720000000    -0.105000000     5.992000000
C    -3.672000000     0.819000000     3.972000000
O    -4.806000000     0.092000000     3.496000000
C    -5.817000000     0.733000000     2.762000000
C    -6.139000000     0.322000000     1.457000000
H    -5.688000000    -0.633000000     1.197000000
C    -6.407000000     1.908000000     3.250000000
H    -6.005000000     2.333000000     4.166000000
C    -7.229000000     2.624000000     2.386000000
H    -7.742000000     3.545000000     2.653000000
C    -7.520000000     2.155000000     1.109000000
H    -8.137000000     2.688000000     0.390000000
C    -7.027000000     0.946000000     0.688000000
O    -7.318000000     0.459000000    -0.575000000
C    -6.326000000     0.371000000    -1.481000000
C    -6.354000000    -0.824000000    -2.166000000
H    -7.187000000    -1.519000000    -2.098000000
C    -5.333000000    -1.122000000    -3.052000000
O    -5.316000000    -2.257000000    -3.805000000
C    -4.299000000    -2.887000000    -4.516000000
C    -3.496000000    -3.824000000    -3.856000000
H    -3.710000000    -4.029000000    -2.810000000
C    -4.107000000    -2.549000000    -5.818000000
H    -4.822000000    -1.912000000    -6.332000000
C    -3.034000000    -3.061000000    -6.505000000
H    -2.900000000    -2.768000000    -7.543000000
C    -2.170000000    -3.887000000    -5.805000000
H    -1.224000000    -4.132000000    -6.282000000
C    -2.388000000    -4.316000000    -4.487000000
O    -1.395000000    -5.092000000    -3.842000000
C    -0.094000000    -4.708000000    -3.671000000
C     0.805000000    -5.672000000    -3.296000000
H     0.637000000    -6.745000000    -3.257000000
C     2.051000000    -5.309000000    -2.981000000
O     2.953000000    -6.142000000    -2.431000000
C     3.751000000    -5.812000000    -1.333000000
C     5.122000000    -5.884000000    -1.465000000
H     5.498000000    -5.991000000    -2.479000000
C     5.959000000    -5.545000000    -0.355000000
H     7.029000000    -5.696000000    -0.465000000
C     5.444000000    -5.403000000     0.913000000
H     6.079000000    -5.366000000     1.795000000
C     4.014000000    -5.282000000     0.998000000
C     3.167000000    -5.541000000    -0.105000000
H     2.103000000    -5.367000000     0.030000000
C    -1.446000000    -1.218000000    -0.779000000
H    -1.885000000    -1.697000000    -1.650000000
C    -0.533000000    -0.186000000    -0.727000000
H    -0.128000000     0.264000000    -1.630000000
C    -0.080000000     0.242000000     0.469000000
H     0.628000000     1.069000000     0.372000000
C    -0.464000000    -0.255000000     1.643000000
H     0.025000000     0.125000000     2.536000000
C    -1.335000000    -1.312000000     1.721000000
H    -1.544000000    -1.795000000     2.672000000
C    -1.860000000    -1.841000000     0.469000000
C    -2.781000000    -3.031000000     0.549000000
O    -3.114000000    -3.549000000     1.580000000
O    -3.310000000    -3.499000000    -0.470000000
O    -4.236000000    -6.052000000    -1.040000000
H    -3.746000000    -5.263000000    -0.810000000
H    -3.660000000    -6.525000000    -1.641000000
O    -5.961000000    -3.055000000     0.257000000
H    -6.027000000    -3.716000000     0.946000000
H    -5.033000000    -3.046000000     0.022000000
O    -4.265000000    -7.358000000     1.946000000
H    -4.185000000    -8.304000000     1.825000000
H    -4.173000000    -6.995000000     1.065000000
O    -5.194000000    -4.799000000     2.475000000
H    -4.431000000    -4.314000000     2.161000000
H    -4.939000000    -5.719000000     2.406000000
O    -4.635000000    -4.654000000     5.825000000
H    -3.961000000    -4.053000000     5.507000000
H    -4.457000000    -5.477000000     5.370000000
O    -8.388000000    -0.979000000     3.242000000
H    -8.092000000    -0.490000000     4.009000000
H    -9.310000000    -0.739000000     3.146000000
O    -0.317000000    -8.028000000     1.944000000
H    -0.924000000    -7.347000000     2.235000000
H    -0.160000000    -7.829000000     1.021000000
O    -8.603000000    -2.373000000     0.447000000
H    -8.581000000    -1.641000000     1.064000000
H    -7.683000000    -2.596000000     0.307000000
O    -1.541000000    -5.491000000     2.331000000
H    -2.048000000    -4.705000000     2.128000000
H    -1.012000000    -5.245000000     3.091000000
O    -3.063000000    -7.570000000    -3.081000000
H    -3.517000000    -7.481000000    -3.919000000
H    -2.133000000    -7.553000000    -3.309000000
O    -7.815000000    -3.932000000     3.365000000
H    -7.540000000    -3.015000000     3.367000000
H    -7.030000000    -4.416000000     3.108000000
O    -7.485000000    -4.812000000    -1.601000000
H    -6.696000000    -4.555000000    -1.124000000
H    -7.442000000    -5.768000000    -1.637000000
O    -0.277000000    -8.977000000    -1.103000000
H     0.658000000    -9.090000000    -1.274000000
H    -0.419000000    -8.032000000    -1.160000000
O    -3.178000000    -6.868000000     4.261000000
H    -2.514000000    -6.245000000     3.965000000
H    -3.681000000    -7.074000000     3.474000000
O    -6.793000000    -7.500000000    -0.994000000
H    -6.516000000    -8.416000000    -1.003000000
H    -6.027000000    -7.021000000    -0.678000000
O    -0.952000000    -5.959000000    -0.487000000
H    -1.291000000    -5.677000000     0.363000000
H    -1.350000000    -5.356000000    -1.115000000
O    -9.720000000    -3.436000000    -2.073000000
H    -9.536000000    -2.775000000    -1.406000000
H    -8.934000000    -3.982000000    -2.093000000
O    -0.941000000    -4.356000000     5.396000000
H    -1.640000000    -3.784000000     5.080000000
H    -0.961000000    -4.255000000     6.348000000
O    -3.117000000    -2.888000000     4.118000000
H    -3.046000000    -2.983000000     3.168000000
H    -3.622000000    -2.085000000     4.241000000
