215
-1469.63904
C    -2.575000000     2.295000000     3.236000000
H    -2.965000000     2.614000000     2.273000000
C    -1.351000000     2.714000000     3.675000000
C    -0.963000000     2.214000000     4.931000000
H     0.046000000     2.313000000     5.325000000
C    -0.290000000     3.354000000     2.707000000
O    -0.834000000     4.521000000     1.994000000
H    -0.212000000     2.550000000     1.960000000
O     0.926000000     3.670000000     3.363000000
C     2.101000000     3.335000000     2.660000000
C     2.828000000     2.239000000     3.119000000
H     2.655000000     1.756000000     4.077000000
C     3.877000000     1.699000000     2.335000000
O     4.381000000     0.468000000     2.686000000
C     4.127000000     2.311000000     1.073000000
C     5.233000000     1.806000000     0.188000000
H     5.679000000     2.612000000    -0.400000000
C     4.719000000     0.732000000    -0.752000000
C     4.367000000     1.066000000    -2.101000000
H     4.508000000     2.112000000    -2.362000000
H     6.074000000     1.453000000     0.788000000
C     3.467000000     3.409000000     0.650000000
H     3.844000000     3.957000000    -0.209000000
C     2.468000000     3.950000000     1.467000000
C     1.765000000     5.147000000     0.838000000
H     2.464000000     5.780000000     0.287000000
H     1.318000000     5.728000000     1.647000000
C     0.559000000     4.712000000     0.027000000
C     0.739000000     4.606000000    -1.361000000
H     1.754000000     4.733000000    -1.730000000
C    -0.666000000     4.465000000     0.609000000
C    -1.747000000     4.076000000    -0.206000000
H    -2.696000000     3.809000000     0.251000000
C    -1.576000000     3.921000000    -1.568000000
O    -2.703000000     3.580000000    -2.343000000
C    -2.658000000     2.220000000    -2.797000000
C    -4.079000000     1.603000000    -2.723000000
C    -4.281000000     0.430000000    -3.330000000
H    -3.531000000     0.069000000    -4.028000000
C    -5.049000000     2.093000000    -1.843000000
H    -4.897000000     2.985000000    -1.241000000
O    -2.102000000     2.194000000    -4.128000000
H    -1.892000000     1.667000000    -2.235000000
C    -0.315000000     4.158000000    -2.166000000
C    -0.154000000     4.141000000    -3.683000000
H     0.495000000     4.978000000    -3.953000000
H    -1.054000000     4.499000000    -4.187000000
C     0.252000000     2.761000000    -4.119000000
C     1.594000000     2.404000000    -4.211000000
H     2.368000000     3.163000000    -4.131000000
C    -0.785000000     1.828000000    -4.305000000
C    -0.462000000     0.429000000    -4.439000000
H    -1.259000000    -0.306000000    -4.521000000
C     0.899000000     0.098000000    -4.513000000
O     1.189000000    -1.272000000    -4.533000000
C     1.460000000    -1.873000000    -3.248000000
C     0.588000000    -3.082000000    -2.914000000
C    -0.697000000    -3.209000000    -3.461000000
H    -1.147000000    -2.334000000    -3.923000000
C     1.207000000    -4.121000000    -2.199000000
H     2.241000000    -4.166000000    -1.867000000
O     2.925000000    -2.158000000    -3.135000000
H     1.171000000    -1.063000000    -2.563000000
C     1.883000000     1.056000000    -4.361000000
C     3.358000000     0.621000000    -4.316000000
H     4.003000000     1.377000000    -4.770000000
H     3.480000000    -0.119000000    -5.109000000
C     3.817000000     0.157000000    -2.918000000
C     3.735000000    -1.200000000    -2.522000000
C     4.253000000    -1.558000000    -1.242000000
H     4.031000000    -2.563000000    -0.891000000
C     4.704000000    -0.623000000    -0.373000000
O     4.918000000    -0.873000000     0.964000000
C     3.885000000    -0.623000000     1.975000000
H     3.067000000    -0.171000000     1.396000000
C     3.454000000    -1.837000000     2.801000000
C     2.844000000    -1.733000000     4.064000000
H     2.713000000    -0.729000000     4.460000000
C     3.765000000    -3.151000000     2.327000000
H     4.342000000    -3.212000000     1.408000000
C     3.490000000    -4.259000000     3.071000000
O     3.893000000    -5.582000000     2.679000000
C     2.796000000    -4.103000000     4.250000000
H     2.449000000    -5.020000000     4.720000000
C     2.367000000    -2.855000000     4.706000000
O     1.478000000    -2.798000000     5.812000000
C     1.243000000    -1.662000000     6.500000000
C     0.088000000    -0.899000000     6.259000000
H    -0.567000000    -1.182000000     5.439000000
C     2.110000000    -1.310000000     7.529000000
H     3.058000000    -1.828000000     7.654000000
C     1.761000000    -0.182000000     8.357000000
H     2.414000000     0.071000000     9.189000000
C     0.590000000     0.571000000     8.060000000
H     0.219000000     1.336000000     8.737000000
C    -0.242000000     0.187000000     7.066000000
O    -1.353000000     0.972000000     6.884000000
C    -1.782000000     1.448000000     5.652000000
C    -3.077000000     1.114000000     5.246000000
H    -3.673000000     0.525000000     5.938000000
C    -3.456000000     1.490000000     3.995000000
O    -4.726000000     1.268000000     3.598000000
C    -5.442000000     2.019000000     2.668000000
C    -6.034000000     1.470000000     1.513000000
H    -5.956000000     0.389000000     1.421000000
C    -5.489000000     3.348000000     2.806000000
H    -4.965000000     3.868000000     3.604000000
C    -6.217000000     4.151000000     1.932000000
H    -6.327000000     5.224000000     2.068000000
C    -6.758000000     3.633000000     0.774000000
H    -7.241000000     4.283000000     0.048000000
C    -6.649000000     2.263000000     0.507000000
O    -7.118000000     1.766000000    -0.659000000
C    -6.315000000     1.496000000    -1.745000000
C    -6.535000000     0.387000000    -2.535000000
H    -7.456000000    -0.176000000    -2.402000000
C    -5.553000000    -0.167000000    -3.357000000
O    -5.878000000    -1.261000000    -4.074000000
C    -4.927000000    -2.049000000    -4.768000000
C    -4.310000000    -3.020000000    -4.024000000
H    -4.578000000    -3.146000000    -2.978000000
C    -4.451000000    -1.687000000    -6.028000000
H    -4.903000000    -0.894000000    -6.617000000
C    -3.361000000    -2.367000000    -6.669000000
H    -2.941000000    -2.081000000    -7.630000000
C    -2.737000000    -3.366000000    -5.911000000
H    -1.912000000    -3.897000000    -6.378000000
C    -3.249000000    -3.725000000    -4.578000000
O    -2.559000000    -4.687000000    -3.807000000
C    -1.350000000    -4.438000000    -3.196000000
C    -0.778000000    -5.410000000    -2.398000000
H    -1.257000000    -6.386000000    -2.387000000
C     0.503000000    -5.237000000    -1.877000000
O     1.047000000    -6.246000000    -1.112000000
C     2.243000000    -6.317000000    -0.531000000
C     3.348000000    -6.681000000    -1.292000000
H     3.102000000    -7.004000000    -2.300000000
C     4.606000000    -6.719000000    -0.730000000
H     5.454000000    -6.937000000    -1.373000000
C     4.809000000    -6.458000000     0.647000000
H     5.830000000    -6.477000000     1.018000000
C     3.701000000    -5.947000000     1.342000000
C     2.395000000    -5.930000000     0.772000000
H     1.519000000    -5.614000000     1.332000000
C    -1.815000000    -0.283000000    -0.055000000
H    -2.601000000    -0.496000000    -0.776000000
C    -0.559000000     0.224000000    -0.379000000
H    -0.431000000     0.615000000    -1.385000000
C     0.431000000     0.414000000     0.577000000
H     1.428000000     0.790000000     0.372000000
C     0.151000000     0.166000000     1.892000000
H     0.981000000     0.293000000     2.582000000
C    -1.063000000    -0.458000000     2.251000000
H    -1.211000000    -0.683000000     3.304000000
C    -2.012000000    -0.685000000     1.261000000
C    -3.247000000    -1.413000000     1.598000000
O    -3.312000000    -2.160000000     2.552000000
O    -4.168000000    -1.430000000     0.802000000
O    -5.905000000    -6.412000000     0.795000000
H    -5.358000000    -5.750000000     1.218000000
H    -5.531000000    -6.508000000    -0.081000000
O    -3.624000000    -3.899000000    -0.795000000
H    -3.750000000    -3.051000000    -0.370000000
H    -2.755000000    -4.183000000    -0.512000000
O    -6.753000000    -2.146000000    -0.338000000
H    -7.206000000    -2.863000000     0.107000000
H    -5.993000000    -1.963000000     0.214000000
O    -0.472000000    -5.153000000     5.482000000
H    -0.767000000    -4.334000000     5.086000000
H    -0.553000000    -5.801000000     4.783000000
O    -4.055000000    -4.703000000     2.109000000
H    -3.932000000    -3.772000000     2.294000000
H    -3.366000000    -4.915000000     1.479000000
O    -5.886000000    -4.101000000     5.999000000
H    -5.421000000    -3.424000000     5.509000000
H    -6.310000000    -4.635000000     5.327000000
O    -6.285000000    -0.123000000     5.290000000
H    -6.492000000     0.235000000     6.154000000
H    -6.257000000     0.642000000     4.715000000
O    -6.473000000    -5.459000000     3.555000000
H    -6.276000000    -6.373000000     3.350000000
H    -5.735000000    -4.969000000     3.191000000
O    -8.656000000    -0.736000000     0.504000000
H    -8.413000000    -0.632000000     1.424000000
H    -7.866000000    -1.079000000     0.085000000
O    -8.280000000    -3.884000000     1.327000000
H    -8.188000000    -4.735000000     1.755000000
H    -7.754000000    -3.289000000     1.861000000
O     0.348000000    -3.291000000     0.824000000
H    -0.180000000    -3.048000000     1.584000000
H     0.605000000    -2.456000000     0.434000000
O    -2.540000000    -3.687000000     6.659000000
H    -3.264000000    -3.337000000     6.140000000
H    -2.419000000    -4.578000000     6.332000000
O    -6.359000000    -2.246000000     2.702000000
H    -6.655000000    -1.405000000     3.051000000
H    -5.492000000    -2.063000000     2.340000000
O    -8.000000000    -3.163000000    -2.753000000
H    -7.420000000    -2.741000000    -2.118000000
H    -7.687000000    -2.855000000    -3.604000000
O    -1.392000000    -6.887000000     3.144000000
H    -2.163000000    -7.447000000     3.232000000
H    -1.352000000    -6.681000000     2.210000000
O    -4.797000000    -6.123000000    -1.741000000
H    -3.911000000    -6.440000000    -1.916000000
H    -4.678000000    -5.211000000    -1.478000000
O    -1.654000000    -5.250000000     0.648000000
H    -0.788000000    -4.851000000     0.569000000
H    -1.494000000    -6.190000000     0.558000000
O    -1.200000000    -3.733000000     3.228000000
H    -1.789000000    -3.061000000     2.884000000
H    -1.665000000    -4.557000000     3.081000000
O    -4.344000000    -2.371000000     4.991000000
H    -4.029000000    -2.125000000     4.121000000
H    -5.015000000    -1.720000000     5.195000000
