215
-1441.07861
C    -2.994000000     1.685000000     3.482000000
H    -3.288000000     1.898000000     2.457000000
C    -1.683000000     2.013000000     3.930000000
C    -1.301000000     1.571000000     5.228000000
H    -0.341000000     1.868000000     5.641000000
C    -0.804000000     2.872000000     3.011000000
O    -1.508000000     3.907000000     2.465000000
H    -0.428000000     2.129000000     2.292000000
O     0.278000000     3.369000000     3.744000000
C     1.520000000     3.165000000     3.177000000
C     2.263000000     2.042000000     3.382000000
H     1.820000000     1.284000000     4.024000000
C     3.364000000     1.657000000     2.663000000
O     3.893000000     0.458000000     2.986000000
C     3.858000000     2.611000000     1.718000000
C     5.088000000     2.206000000     0.834000000
H     5.536000000     3.104000000     0.403000000
C     4.678000000     1.327000000    -0.336000000
C     4.347000000     1.984000000    -1.514000000
H     4.471000000     3.061000000    -1.589000000
H     5.886000000     1.823000000     1.474000000
C     3.056000000     3.739000000     1.449000000
H     3.374000000     4.411000000     0.656000000
C     1.878000000     3.996000000     2.142000000
C     1.080000000     5.204000000     1.702000000
H     1.723000000     5.964000000     1.255000000
H     0.559000000     5.633000000     2.561000000
C    -0.021000000     4.772000000     0.731000000
C     0.257000000     4.900000000    -0.598000000
H     1.244000000     5.298000000    -0.818000000
C    -1.211000000     4.173000000     1.172000000
C    -2.240000000     3.949000000     0.226000000
H    -3.224000000     3.580000000     0.504000000
C    -1.967000000     4.102000000    -1.090000000
O    -2.922000000     3.584000000    -1.996000000
C    -2.735000000     2.246000000    -2.487000000
C    -3.931000000     1.386000000    -2.673000000
C    -4.120000000     0.433000000    -3.677000000
H    -3.394000000     0.280000000    -4.472000000
C    -4.867000000     1.541000000    -1.648000000
H    -4.822000000     2.427000000    -1.019000000
O    -2.038000000     2.323000000    -3.729000000
H    -1.972000000     1.721000000    -1.892000000
C    -0.691000000     4.582000000    -1.528000000
C    -0.379000000     4.663000000    -3.049000000
H     0.390000000     5.414000000    -3.241000000
H    -1.314000000     4.970000000    -3.522000000
C     0.159000000     3.353000000    -3.554000000
C     1.489000000     3.166000000    -3.690000000
H     2.121000000     3.978000000    -3.339000000
C    -0.667000000     2.308000000    -3.904000000
C    -0.186000000     1.096000000    -4.287000000
H    -0.907000000     0.322000000    -4.537000000
C     1.186000000     0.893000000    -4.384000000
O     1.593000000    -0.437000000    -4.674000000
C     2.156000000    -1.190000000    -3.590000000
C     1.730000000    -2.646000000    -3.744000000
C     0.371000000    -2.891000000    -4.089000000
H    -0.317000000    -2.091000000    -4.349000000
C     2.573000000    -3.740000000    -3.561000000
H     3.645000000    -3.585000000    -3.464000000
O     3.519000000    -0.997000000    -3.553000000
H     1.685000000    -0.826000000    -2.666000000
C     2.095000000     1.911000000    -4.034000000
C     3.541000000     1.800000000    -3.993000000
H     4.028000000     2.764000000    -4.153000000
H     3.895000000     1.163000000    -4.806000000
C     3.927000000     1.217000000    -2.610000000
C     3.847000000    -0.208000000    -2.457000000
C     4.100000000    -0.832000000    -1.297000000
H     4.146000000    -1.911000000    -1.180000000
C     4.638000000    -0.060000000    -0.285000000
O     4.693000000    -0.685000000     0.917000000
C     3.643000000    -0.619000000     1.939000000
H     2.729000000    -0.317000000     1.406000000
C     3.133000000    -1.960000000     2.508000000
C     2.537000000    -1.996000000     3.741000000
H     2.465000000    -1.053000000     4.277000000
C     3.185000000    -3.131000000     1.811000000
H     3.559000000    -3.205000000     0.793000000
C     2.590000000    -4.357000000     2.273000000
O     2.555000000    -5.461000000     1.514000000
C     2.016000000    -4.305000000     3.570000000
H     1.709000000    -5.243000000     4.026000000
C     1.995000000    -3.168000000     4.293000000
O     1.554000000    -3.330000000     5.593000000
C     1.194000000    -2.145000000     6.268000000
C    -0.102000000    -1.705000000     6.246000000
H    -0.896000000    -2.024000000     5.576000000
C     2.105000000    -1.860000000     7.272000000
H     3.027000000    -2.412000000     7.439000000
C     1.827000000    -0.796000000     8.160000000
H     2.563000000    -0.524000000     8.913000000
C     0.584000000    -0.170000000     7.973000000
H     0.343000000     0.658000000     8.636000000
C    -0.411000000    -0.612000000     7.094000000
O    -1.643000000    -0.091000000     7.034000000
C    -2.097000000     0.677000000     5.953000000
C    -3.387000000     0.471000000     5.464000000
H    -4.075000000    -0.157000000     6.025000000
C    -3.854000000     0.949000000     4.258000000
O    -5.104000000     0.634000000     3.844000000
C    -5.884000000     1.190000000     2.869000000
C    -5.964000000     0.645000000     1.568000000
H    -5.446000000    -0.289000000     1.368000000
C    -6.628000000     2.357000000     3.259000000
H    -6.558000000     2.701000000     4.287000000
C    -7.445000000     2.966000000     2.310000000
H    -8.036000000     3.810000000     2.658000000
C    -7.585000000     2.426000000     1.011000000
H    -8.302000000     2.931000000     0.369000000
C    -6.731000000     1.362000000     0.569000000
O    -6.959000000     0.830000000    -0.676000000
C    -5.997000000     0.740000000    -1.635000000
C    -6.081000000    -0.300000000    -2.557000000
H    -6.938000000    -0.970000000    -2.552000000
C    -5.212000000    -0.475000000    -3.543000000
O    -5.406000000    -1.481000000    -4.450000000
C    -4.325000000    -2.125000000    -4.976000000
C    -3.497000000    -2.932000000    -4.276000000
H    -3.814000000    -3.226000000    -3.279000000
C    -3.997000000    -1.770000000    -6.253000000
H    -4.587000000    -1.067000000    -6.835000000
C    -2.946000000    -2.371000000    -6.947000000
H    -2.701000000    -1.980000000    -7.931000000
C    -2.029000000    -3.171000000    -6.279000000
H    -1.181000000    -3.559000000    -6.839000000
C    -2.340000000    -3.498000000    -4.934000000
O    -1.448000000    -4.359000000    -4.326000000
C    -0.112000000    -4.182000000    -4.123000000
C     0.722000000    -5.283000000    -3.939000000
H     0.288000000    -6.272000000    -3.820000000
C     2.060000000    -5.030000000    -3.542000000
O     2.824000000    -6.026000000    -3.136000000
C     3.424000000    -5.841000000    -1.924000000
C     4.841000000    -5.830000000    -1.835000000
H     5.486000000    -5.847000000    -2.710000000
C     5.442000000    -5.726000000    -0.591000000
H     6.523000000    -5.684000000    -0.483000000
C     4.692000000    -5.722000000     0.588000000
H     5.077000000    -5.568000000     1.593000000
C     3.341000000    -5.673000000     0.431000000
C     2.677000000    -5.809000000    -0.746000000
H     1.590000000    -5.807000000    -0.755000000
C    -1.830000000    -1.298000000    -0.735000000
H    -2.395000000    -1.758000000    -1.541000000
C    -0.663000000    -0.656000000    -1.042000000
H    -0.418000000    -0.566000000    -2.097000000
C     0.032000000    -0.039000000    -0.059000000
H     0.966000000     0.475000000    -0.297000000
C    -0.280000000    -0.146000000     1.280000000
H     0.320000000     0.390000000     2.011000000
C    -1.447000000    -0.851000000     1.553000000
H    -1.734000000    -0.807000000     2.600000000
C    -2.286000000    -1.446000000     0.551000000
C    -3.528000000    -2.280000000     0.870000000
O    -3.786000000    -2.509000000     2.044000000
O    -4.232000000    -2.751000000    -0.034000000
O    -7.889000000    -4.095000000     4.480000000
H    -7.951000000    -3.827000000     5.397000000
H    -7.337000000    -3.428000000     4.073000000
O    -2.372000000    -6.544000000     0.203000000
H    -2.407000000    -7.354000000    -0.305000000
H    -1.836000000    -6.762000000     0.965000000
O    -6.258000000    -4.775000000    -2.492000000
H    -6.588000000    -4.363000000    -1.693000000
H    -5.340000000    -4.967000000    -2.300000000
O    -4.407000000    -2.654000000     6.364000000
H    -4.336000000    -3.464000000     5.860000000
H    -4.649000000    -1.990000000     5.718000000
O    -9.136000000    -4.359000000    -0.806000000
H    -8.696000000    -4.717000000    -0.035000000
H    -8.757000000    -3.487000000    -0.915000000
O    -6.048000000    -2.259000000     3.660000000
H    -5.274000000    -2.457000000     3.133000000
H    -5.974000000    -1.325000000     3.853000000
O    -5.320000000    -4.718000000     1.576000000
H    -4.844000000    -4.056000000     1.074000000
H    -5.020000000    -4.596000000     2.477000000
O    -4.830000000    -8.788000000     3.052000000
H    -5.126000000    -8.224000000     2.337000000
H    -4.660000000    -9.633000000     2.635000000
O    -0.483000000    -4.471000000     0.151000000
H    -1.160000000    -5.143000000     0.074000000
H    -0.969000000    -3.655000000     0.276000000
O    -2.849000000    -7.054000000    -3.562000000
H    -3.795000000    -6.995000000    -3.700000000
H    -2.625000000    -6.250000000    -3.094000000
O    -5.390000000    -7.549000000     0.619000000
H    -4.834000000    -6.770000000     0.638000000
H    -5.089000000    -8.040000000    -0.146000000
O    -3.580000000    -6.118000000     6.617000000
H    -3.266000000    -6.480000000     5.789000000
H    -2.815000000    -6.138000000     7.193000000
O    -0.838000000    -6.010000000     4.868000000
H    -1.554000000    -6.636000000     4.977000000
H    -1.250000000    -5.240000000     4.476000000
O    -4.862000000    -5.040000000     4.260000000
H    -5.054000000    -5.772000000     4.846000000
H    -5.655000000    -4.504000000     4.277000000
O    -0.007000000    -6.776000000     2.135000000
H    -0.236000000    -6.475000000     3.014000000
H     0.094000000    -5.972000000     1.625000000
O    -3.630000000    -5.040000000    -1.832000000
H    -3.459000000    -4.191000000    -1.425000000
H    -3.300000000    -5.680000000    -1.201000000
O    -7.806000000    -5.608000000     1.425000000
H    -7.751000000    -6.051000000     2.272000000
H    -6.922000000    -5.273000000     1.273000000
O    -2.394000000    -4.184000000     3.485000000
H    -2.727000000    -3.549000000     2.851000000
H    -3.172000000    -4.485000000     3.953000000
O    -6.870000000    -2.456000000    -0.309000000
H    -7.208000000    -2.833000000     0.503000000
H    -5.919000000    -2.465000000    -0.199000000
