215
-1484.02356
C    -3.109000000     1.602000000     3.409000000
H    -3.228000000     2.264000000     2.555000000
C    -1.838000000     1.636000000     3.969000000
C    -1.503000000     0.868000000     5.017000000
H    -0.533000000     0.875000000     5.507000000
C    -0.816000000     2.535000000     3.279000000
O    -1.307000000     3.848000000     2.781000000
H    -0.494000000     1.958000000     2.400000000
O     0.319000000     2.696000000     4.157000000
C     1.559000000     2.455000000     3.575000000
C     2.294000000     1.286000000     3.888000000
H     1.840000000     0.559000000     4.556000000
C     3.474000000     0.985000000     3.226000000
O     4.191000000    -0.259000000     3.297000000
C     3.835000000     1.817000000     2.217000000
C     5.119000000     1.587000000     1.358000000
H     5.537000000     2.574000000     1.150000000
C     4.792000000     0.864000000     0.082000000
C     4.589000000     1.591000000    -1.119000000
H     4.582000000     2.677000000    -1.161000000
H     5.808000000     1.012000000     1.981000000
C     3.271000000     3.062000000     2.017000000
H     3.651000000     3.729000000     1.248000000
C     2.086000000     3.394000000     2.657000000
C     1.472000000     4.765000000     2.393000000
H     2.260000000     5.462000000     2.099000000
H     1.006000000     5.078000000     3.330000000
C     0.341000000     4.644000000     1.231000000
C     0.743000000     4.821000000    -0.137000000
H     1.725000000     5.188000000    -0.424000000
C    -0.937000000     4.163000000     1.529000000
C    -1.884000000     3.974000000     0.551000000
H    -2.892000000     3.622000000     0.755000000
C    -1.488000000     4.220000000    -0.791000000
O    -2.423000000     3.925000000    -1.758000000
C    -2.292000000     2.658000000    -2.387000000
C    -3.652000000     1.970000000    -2.579000000
C    -3.856000000     1.055000000    -3.627000000
H    -3.043000000     0.826000000    -4.311000000
C    -4.665000000     2.137000000    -1.614000000
H    -4.539000000     2.861000000    -0.813000000
O    -1.641000000     2.742000000    -3.696000000
H    -1.644000000     2.027000000    -1.760000000
C    -0.211000000     4.703000000    -1.154000000
C     0.180000000     4.948000000    -2.585000000
H     0.861000000     5.795000000    -2.682000000
H    -0.756000000     5.172000000    -3.101000000
C     0.653000000     3.620000000    -3.223000000
C     2.000000000     3.318000000    -3.180000000
H     2.578000000     4.053000000    -2.626000000
C    -0.240000000     2.729000000    -3.829000000
C     0.229000000     1.557000000    -4.382000000
H    -0.510000000     0.928000000    -4.872000000
C     1.564000000     1.263000000    -4.215000000
O     1.967000000     0.040000000    -4.640000000
C     2.130000000    -0.958000000    -3.560000000
C     1.419000000    -2.255000000    -3.962000000
C     0.277000000    -2.256000000    -4.774000000
H    -0.134000000    -1.338000000    -5.187000000
C     1.927000000    -3.451000000    -3.455000000
H     2.718000000    -3.487000000    -2.710000000
O     3.555000000    -1.208000000    -3.259000000
H     1.704000000    -0.591000000    -2.615000000
C     2.522000000     2.145000000    -3.649000000
C     3.956000000     1.761000000    -3.493000000
H     4.520000000     2.696000000    -3.483000000
H     4.205000000     1.199000000    -4.395000000
C     4.140000000     0.899000000    -2.269000000
C     4.106000000    -0.505000000    -2.223000000
C     4.239000000    -1.258000000    -1.021000000
H     4.022000000    -2.322000000    -1.082000000
C     4.604000000    -0.534000000     0.146000000
O     4.701000000    -1.266000000     1.329000000
C     3.721000000    -1.187000000     2.314000000
H     2.806000000    -0.863000000     1.797000000
C     3.328000000    -2.534000000     2.925000000
C     2.446000000    -2.575000000     3.987000000
H     2.269000000    -1.702000000     4.611000000
C     3.446000000    -3.702000000     2.154000000
H     4.043000000    -3.679000000     1.247000000
C     2.691000000    -4.812000000     2.355000000
O     2.583000000    -5.818000000     1.456000000
C     1.990000000    -4.921000000     3.521000000
H     1.447000000    -5.827000000     3.780000000
C     1.900000000    -3.797000000     4.341000000
O     1.031000000    -3.924000000     5.407000000
C     0.709000000    -2.927000000     6.275000000
C    -0.510000000    -2.260000000     6.099000000
H    -1.289000000    -2.667000000     5.460000000
C     1.538000000    -2.580000000     7.338000000
H     2.412000000    -3.211000000     7.478000000
C     1.100000000    -1.526000000     8.244000000
H     1.686000000    -1.235000000     9.112000000
C    -0.103000000    -0.900000000     8.033000000
H    -0.480000000    -0.130000000     8.702000000
C    -0.943000000    -1.333000000     6.989000000
O    -2.183000000    -0.714000000     6.752000000
C    -2.450000000     0.047000000     5.629000000
C    -3.779000000    -0.041000000     5.114000000
H    -4.541000000    -0.692000000     5.535000000
C    -4.110000000     0.729000000     3.963000000
O    -5.343000000     0.625000000     3.404000000
C    -5.918000000     1.495000000     2.491000000
C    -6.111000000     1.098000000     1.175000000
H    -5.832000000     0.096000000     0.857000000
C    -6.285000000     2.793000000     2.897000000
H    -6.170000000     3.005000000     3.957000000
C    -7.070000000     3.639000000     2.066000000
H    -7.539000000     4.548000000     2.435000000
C    -7.275000000     3.211000000     0.725000000
H    -7.904000000     3.776000000     0.042000000
C    -6.811000000     1.995000000     0.304000000
O    -7.027000000     1.603000000    -1.058000000
C    -5.903000000     1.426000000    -1.811000000
C    -6.088000000     0.553000000    -2.901000000
H    -7.039000000     0.042000000    -3.031000000
C    -5.036000000     0.350000000    -3.786000000
O    -5.217000000    -0.470000000    -4.859000000
C    -4.163000000    -1.027000000    -5.603000000
C    -3.405000000    -2.082000000    -5.119000000
H    -3.573000000    -2.574000000    -4.164000000
C    -3.911000000    -0.415000000    -6.789000000
H    -4.302000000     0.547000000    -7.113000000
C    -2.888000000    -0.910000000    -7.587000000
H    -2.731000000    -0.452000000    -8.561000000
C    -2.151000000    -2.037000000    -7.181000000
H    -1.382000000    -2.495000000    -7.798000000
C    -2.378000000    -2.559000000    -5.941000000
O    -1.649000000    -3.657000000    -5.526000000
C    -0.389000000    -3.518000000    -4.970000000
C     0.245000000    -4.707000000    -4.590000000
H    -0.312000000    -5.640000000    -4.625000000
C     1.403000000    -4.689000000    -3.825000000
O     1.923000000    -5.854000000    -3.286000000
C     2.677000000    -5.853000000    -2.111000000
C     4.035000000    -6.033000000    -2.358000000
H     4.366000000    -6.142000000    -3.387000000
C     4.939000000    -6.217000000    -1.305000000
H     5.969000000    -6.526000000    -1.463000000
C     4.458000000    -6.105000000     0.013000000
H     5.068000000    -6.109000000     0.913000000
C     3.091000000    -5.747000000     0.202000000
C     2.159000000    -5.697000000    -0.829000000
H     1.133000000    -5.648000000    -0.473000000
C    -0.514000000    -2.503000000    -0.397000000
H    -0.803000000    -3.208000000    -1.172000000
C    -0.126000000    -1.235000000    -0.816000000
H    -0.077000000    -0.962000000    -1.867000000
C     0.224000000    -0.309000000     0.140000000
H     0.538000000     0.671000000    -0.224000000
C     0.210000000    -0.644000000     1.516000000
H     0.388000000     0.174000000     2.210000000
C    -0.141000000    -1.918000000     1.882000000
H    -0.292000000    -2.058000000     2.949000000
C    -0.475000000    -2.900000000     0.973000000
C    -0.895000000    -4.312000000     1.408000000
O    -1.271000000    -4.516000000     2.564000000
O    -1.123000000    -5.086000000     0.503000000
O    -3.638000000    -8.326000000    -0.041000000
H    -3.461000000    -8.171000000    -0.968000000
H    -3.672000000    -7.452000000     0.346000000
O    -3.002000000    -5.256000000     6.619000000
H    -2.348000000    -5.460000000     5.951000000
H    -2.491000000    -4.945000000     7.367000000
O    -3.534000000    -2.867000000     2.433000000
H    -2.960000000    -3.628000000     2.519000000
H    -4.418000000    -3.221000000     2.534000000
O    -3.489000000    -3.154000000    -0.886000000
H    -3.344000000    -3.716000000    -0.124000000
H    -3.305000000    -2.270000000    -0.570000000
O    -3.665000000    -5.893000000     0.903000000
H    -2.753000000    -5.681000000     1.102000000
H    -4.147000000    -5.632000000     1.687000000
O    -1.513000000    -7.799000000    -2.805000000
H    -1.840000000    -6.945000000    -2.524000000
H    -1.616000000    -7.794000000    -3.757000000
O    -4.461000000    -9.310000000     2.336000000
H    -3.936000000    -9.100000000     1.564000000
H    -3.832000000    -9.325000000     3.057000000
O     0.354000000    -9.478000000    -1.649000000
H     0.998000000    -9.754000000    -2.301000000
H    -0.245000000    -8.907000000    -2.129000000
O    -2.380000000    -5.397000000    -1.976000000
H    -1.823000000    -5.544000000    -1.212000000
H    -2.776000000    -4.539000000    -1.823000000
O    -6.115000000    -5.700000000    -0.370000000
H    -6.516000000    -4.857000000    -0.583000000
H    -5.276000000    -5.471000000     0.032000000
O    -0.008000000    -7.862000000     0.732000000
H    -0.315000000    -8.129000000    -0.134000000
H    -0.261000000    -6.941000000     0.802000000
O    -4.661000000    -4.950000000     3.474000000
H    -4.256000000    -5.645000000     3.992000000
H    -5.246000000    -4.504000000     4.088000000
O     2.091000000    -9.222000000     1.292000000
H     2.103000000   -10.020000000     0.764000000
H     1.326000000    -8.739000000     0.981000000
O    -1.604000000    -9.638000000     3.298000000
H    -1.512000000    -9.926000000     2.390000000
H    -0.768000000    -9.218000000     3.502000000
O     0.854000000    -6.119000000     7.219000000
H     0.965000000    -5.325000000     6.698000000
H     0.055000000    -5.965000000     7.723000000
O     0.799000000    -8.138000000     3.823000000
H     1.086000000    -7.764000000     2.990000000
H     1.237000000    -8.988000000     3.869000000
O    -2.775000000    -0.783000000     0.630000000
H    -1.825000000    -0.696000000     0.719000000
H    -3.013000000    -1.461000000     1.264000000
O    -5.687000000    -3.236000000    -2.710000000
H    -4.934000000    -3.293000000    -2.121000000
H    -5.488000000    -3.854000000    -3.413000000
O    -1.499000000    -6.438000000     4.531000000
H    -1.641000000    -5.813000000     3.820000000
H    -0.706000000    -6.912000000     4.278000000
