215
-1454.64795
C    -2.955000000     2.894000000     3.677000000
H    -3.219000000     3.506000000     2.819000000
C    -1.636000000     2.792000000     4.071000000
C    -1.272000000     1.983000000     5.156000000
H    -0.253000000     1.959000000     5.533000000
C    -0.521000000     3.274000000     3.166000000
O    -0.770000000     4.591000000     2.616000000
H    -0.451000000     2.578000000     2.317000000
O     0.792000000     3.277000000     3.799000000
C     1.793000000     2.866000000     3.108000000
C     2.217000000     1.583000000     3.361000000
H     1.748000000     0.944000000     4.104000000
C     3.319000000     1.125000000     2.692000000
O     3.601000000    -0.173000000     2.880000000
C     4.023000000     1.904000000     1.776000000
C     5.124000000     1.483000000     0.907000000
H     5.573000000     2.356000000     0.430000000
C     4.742000000     0.611000000    -0.287000000
C     4.571000000     1.174000000    -1.562000000
H     4.706000000     2.249000000    -1.641000000
H     5.861000000     0.906000000     1.469000000
C     3.543000000     3.206000000     1.493000000
H     3.839000000     3.802000000     0.634000000
C     2.363000000     3.694000000     2.101000000
C     1.807000000     5.136000000     1.744000000
H     2.550000000     5.826000000     1.337000000
H     1.476000000     5.575000000     2.688000000
C     0.744000000     4.922000000     0.783000000
C     0.964000000     4.886000000    -0.611000000
H     1.944000000     5.233000000    -0.929000000
C    -0.530000000     4.732000000     1.233000000
C    -1.581000000     4.391000000     0.383000000
H    -2.570000000     4.207000000     0.794000000
C    -1.277000000     4.104000000    -0.946000000
O    -2.298000000     3.555000000    -1.734000000
C    -2.064000000     2.283000000    -2.177000000
C    -3.328000000     1.486000000    -2.063000000
C    -3.473000000     0.409000000    -2.833000000
H    -2.713000000     0.134000000    -3.560000000
C    -4.317000000     1.834000000    -1.156000000
H    -4.168000000     2.667000000    -0.473000000
O    -1.693000000     2.297000000    -3.557000000
H    -1.292000000     1.844000000    -1.528000000
C    -0.015000000     4.470000000    -1.477000000
C     0.195000000     4.509000000    -2.971000000
H     0.938000000     5.252000000    -3.268000000
H    -0.686000000     4.828000000    -3.532000000
C     0.528000000     3.120000000    -3.532000000
C     1.904000000     2.808000000    -3.657000000
H     2.608000000     3.504000000    -3.207000000
C    -0.348000000     2.106000000    -3.837000000
C     0.039000000     0.855000000    -4.359000000
H    -0.612000000     0.038000000    -4.662000000
C     1.422000000     0.561000000    -4.523000000
O     1.870000000    -0.712000000    -4.815000000
C     2.081000000    -1.636000000    -3.745000000
C     1.382000000    -2.993000000    -3.932000000
C     0.079000000    -3.137000000    -4.367000000
H    -0.472000000    -2.259000000    -4.694000000
C     1.996000000    -4.128000000    -3.393000000
H     2.927000000    -4.084000000    -2.834000000
O     3.480000000    -1.696000000    -3.500000000
H     1.595000000    -1.243000000    -2.840000000
C     2.339000000     1.531000000    -4.044000000
C     3.831000000     1.180000000    -3.914000000
H     4.427000000     2.095000000    -3.888000000
H     4.195000000     0.626000000    -4.781000000
C     4.143000000     0.408000000    -2.658000000
C     4.042000000    -0.965000000    -2.517000000
C     4.314000000    -1.550000000    -1.341000000
H     4.186000000    -2.625000000    -1.243000000
C     4.624000000    -0.800000000    -0.208000000
O     4.515000000    -1.454000000     1.059000000
C     3.283000000    -1.119000000     1.840000000
H     2.585000000    -0.559000000     1.200000000
C     2.691000000    -2.386000000     2.369000000
C     1.620000000    -2.293000000     3.280000000
H     1.331000000    -1.306000000     3.633000000
C     2.947000000    -3.676000000     1.903000000
H     3.698000000    -3.753000000     1.121000000
C     2.159000000    -4.761000000     2.303000000
O     2.232000000    -6.017000000     1.687000000
C     1.182000000    -4.577000000     3.271000000
H     0.761000000    -5.471000000     3.724000000
C     0.881000000    -3.303000000     3.793000000
O    -0.001000000    -3.164000000     4.843000000
C     0.109000000    -2.174000000     5.705000000
C    -0.858000000    -1.227000000     5.754000000
H    -1.688000000    -1.377000000     5.068000000
C     1.117000000    -2.181000000     6.687000000
H     1.807000000    -3.021000000     6.707000000
C     1.081000000    -1.220000000     7.738000000
H     1.951000000    -1.121000000     8.381000000
C     0.052000000    -0.321000000     7.856000000
H    -0.036000000     0.409000000     8.657000000
C    -0.940000000    -0.370000000     6.886000000
O    -1.945000000     0.494000000     6.924000000
C    -2.236000000     1.386000000     5.905000000
C    -3.601000000     1.624000000     5.649000000
H    -4.347000000     1.274000000     6.358000000
C    -3.903000000     2.336000000     4.497000000
O    -5.228000000     2.625000000     4.357000000
C    -5.897000000     2.875000000     3.193000000
C    -5.685000000     2.052000000     2.111000000
H    -5.084000000     1.203000000     2.427000000
C    -6.701000000     4.045000000     3.043000000
H    -6.893000000     4.713000000     3.878000000
C    -7.243000000     4.309000000     1.805000000
H    -7.907000000     5.161000000     1.687000000
C    -7.083000000     3.434000000     0.723000000
H    -7.555000000     3.544000000    -0.250000000
C    -6.371000000     2.292000000     0.944000000
O    -6.409000000     1.311000000    -0.041000000
C    -5.501000000     1.057000000    -0.988000000
C    -5.635000000    -0.004000000    -1.921000000
H    -6.455000000    -0.705000000    -1.788000000
C    -4.604000000    -0.351000000    -2.822000000
O    -4.753000000    -1.436000000    -3.591000000
C    -3.986000000    -1.815000000    -4.619000000
C    -3.258000000    -2.948000000    -4.480000000
H    -3.432000000    -3.567000000    -3.604000000
C    -4.002000000    -1.123000000    -5.836000000
H    -4.422000000    -0.121000000    -5.859000000
C    -3.277000000    -1.652000000    -6.908000000
H    -3.266000000    -1.115000000    -7.853000000
C    -2.575000000    -2.797000000    -6.764000000
H    -2.038000000    -3.261000000    -7.587000000
C    -2.462000000    -3.422000000    -5.494000000
O    -1.724000000    -4.544000000    -5.285000000
C    -0.476000000    -4.425000000    -4.638000000
C     0.222000000    -5.549000000    -4.247000000
H    -0.272000000    -6.511000000    -4.366000000
C     1.415000000    -5.415000000    -3.589000000
O     2.039000000    -6.519000000    -3.089000000
C     2.831000000    -6.527000000    -1.888000000
C     4.276000000    -6.411000000    -1.995000000
H     4.697000000    -6.228000000    -2.980000000
C     4.962000000    -6.076000000    -0.810000000
H     6.026000000    -5.868000000    -0.890000000
C     4.286000000    -6.080000000     0.420000000
H     4.855000000    -5.848000000     1.317000000
C     2.934000000    -6.283000000     0.511000000
C     2.194000000    -6.471000000    -0.696000000
H     1.114000000    -6.419000000    -0.581000000
C    -1.917000000    -1.753000000    -0.359000000
H    -2.597000000    -2.484000000    -0.789000000
C    -0.878000000    -1.219000000    -1.099000000
H    -0.683000000    -1.411000000    -2.151000000
C     0.098000000    -0.454000000    -0.408000000
H     1.050000000    -0.094000000    -0.950000000
C    -0.001000000    -0.210000000     0.947000000
H     0.753000000     0.389000000     1.452000000
C    -1.041000000    -0.857000000     1.691000000
H    -0.927000000    -0.791000000     2.770000000
C    -2.098000000    -1.581000000     1.012000000
C    -3.276000000    -2.189000000     1.796000000
O    -3.357000000    -1.998000000     2.963000000
O    -4.128000000    -2.831000000     1.182000000
O    -8.101000000    -2.625000000     4.201000000
H    -7.150000000    -2.708000000     4.140000000
H    -8.240000000    -1.886000000     4.794000000
O    -4.756000000    -8.252000000     1.366000000
H    -4.870000000    -8.312000000     0.417000000
H    -4.924000000    -7.331000000     1.569000000
O    -6.544000000    -0.723000000     7.000000000
H    -7.271000000    -1.325000000     7.158000000
H    -6.875000000    -0.115000000     6.339000000
O    -6.278000000    -6.013000000    -1.756000000
H    -7.125000000    -5.576000000    -1.842000000
H    -5.709000000    -5.355000000    -1.357000000
O    -4.207000000    -2.268000000     7.897000000
H    -3.726000000    -2.299000000     7.070000000
H    -5.021000000    -1.813000000     7.684000000
O    -8.792000000    -3.585000000     1.689000000
H    -8.517000000    -3.093000000     2.463000000
H    -8.206000000    -3.284000000     0.994000000
O    -7.769000000     0.733000000     4.984000000
H    -8.351000000     0.370000000     4.316000000
H    -7.140000000     1.261000000     4.493000000
O    -5.712000000    -1.025000000     3.777000000
H    -4.897000000    -1.464000000     3.534000000
H    -5.678000000    -0.968000000     4.732000000
O    -5.183000000    -5.106000000     2.522000000
H    -4.584000000    -4.433000000     2.198000000
H    -5.087000000    -5.074000000     3.474000000
O    -1.774000000    -6.916000000    -1.108000000
H    -2.644000000    -7.315000000    -1.127000000
H    -1.174000000    -7.638000000    -1.294000000
O    -0.794000000    -5.290000000     0.735000000
H    -0.359000000    -4.649000000     0.172000000
H    -1.324000000    -5.815000000     0.135000000
O    -9.099000000     0.096000000     2.517000000
H    -9.636000000    -0.641000000     2.808000000
H    -8.617000000    -0.242000000     1.763000000
O    -7.707000000    -6.054000000     1.586000000
H    -8.166000000    -5.254000000     1.329000000
H    -6.806000000    -5.771000000     1.746000000
O    -2.015000000    -5.456000000     3.180000000
H    -1.482000000    -4.815000000     3.651000000
H    -1.673000000    -5.441000000     2.286000000
O    -5.778000000    -4.706000000     5.215000000
H    -5.478000000    -5.364000000     5.842000000
H    -6.733000000    -4.731000000     5.281000000
O    -3.284000000    -7.805000000     3.768000000
H    -2.817000000    -7.033000000     3.448000000
H    -3.821000000    -8.084000000     3.027000000
O    -5.112000000    -3.828000000    -1.061000000
H    -4.901000000    -3.175000000    -1.729000000
H    -4.777000000    -3.453000000    -0.246000000
O    -3.484000000    -2.902000000     5.292000000
H    -3.436000000    -2.647000000     4.370000000
H    -3.937000000    -3.745000000     5.284000000
O    -6.770000000    -1.888000000     1.369000000
H    -6.671000000    -1.439000000     2.209000000
H    -5.907000000    -2.263000000     1.195000000
