215
-1462.34716
C    -3.037000000     2.644000000     3.545000000
H    -3.294000000     3.417000000     2.826000000
C    -1.707000000     2.184000000     3.685000000
C    -1.437000000     1.122000000     4.512000000
H    -0.422000000     0.740000000     4.583000000
C    -0.604000000     2.832000000     2.862000000
O    -0.925000000     4.150000000     2.386000000
H    -0.548000000     2.173000000     1.983000000
O     0.571000000     2.792000000     3.671000000
C     1.852000000     2.725000000     3.160000000
C     2.537000000     1.640000000     3.518000000
H     2.102000000     0.995000000     4.277000000
C     3.737000000     1.242000000     2.914000000
O     4.189000000    -0.005000000     3.219000000
C     4.208000000     2.046000000     1.894000000
C     5.353000000     1.493000000     0.995000000
H     5.934000000     2.380000000     0.736000000
C     4.721000000     0.769000000    -0.182000000
C     4.556000000     1.349000000    -1.469000000
H     4.694000000     2.418000000    -1.614000000
H     6.008000000     0.824000000     1.557000000
C     3.528000000     3.152000000     1.461000000
H     3.883000000     3.609000000     0.541000000
C     2.354000000     3.600000000     2.119000000
C     1.672000000     4.874000000     1.685000000
H     2.442000000     5.511000000     1.245000000
H     1.353000000     5.449000000     2.556000000
C     0.556000000     4.691000000     0.653000000
C     0.805000000     4.882000000    -0.680000000
H     1.822000000     5.067000000    -1.016000000
C    -0.681000000     4.320000000     1.048000000
C    -1.690000000     4.127000000     0.132000000
H    -2.692000000     3.940000000     0.509000000
C    -1.476000000     4.394000000    -1.242000000
O    -2.418000000     3.884000000    -2.086000000
C    -2.319000000     2.518000000    -2.533000000
C    -3.651000000     1.813000000    -2.605000000
C    -3.874000000     0.713000000    -3.505000000
H    -3.087000000     0.457000000    -4.210000000
C    -4.589000000     2.101000000    -1.624000000
H    -4.341000000     2.962000000    -1.009000000
O    -1.725000000     2.599000000    -3.847000000
H    -1.664000000     2.052000000    -1.783000000
C    -0.229000000     4.706000000    -1.654000000
C     0.179000000     4.742000000    -3.128000000
H     0.944000000     5.463000000    -3.424000000
H    -0.710000000     5.159000000    -3.605000000
C     0.576000000     3.371000000    -3.608000000
C     1.981000000     2.928000000    -3.507000000
H     2.680000000     3.669000000    -3.127000000
C    -0.346000000     2.429000000    -3.995000000
C     0.064000000     1.136000000    -4.411000000
H    -0.695000000     0.403000000    -4.670000000
C     1.384000000     0.789000000    -4.434000000
O     1.552000000    -0.592000000    -4.571000000
C     1.871000000    -1.472000000    -3.450000000
C     1.254000000    -2.817000000    -3.609000000
C     0.005000000    -2.944000000    -4.232000000
H    -0.487000000    -2.126000000    -4.752000000
C     1.749000000    -3.909000000    -2.921000000
H     2.685000000    -3.919000000    -2.369000000
O     3.273000000    -1.529000000    -3.278000000
H     1.417000000    -1.029000000    -2.552000000
C     2.368000000     1.712000000    -4.031000000
C     3.819000000     1.267000000    -3.836000000
H     4.528000000     2.094000000    -3.918000000
H     4.099000000     0.523000000    -4.585000000
C     4.022000000     0.628000000    -2.494000000
C     3.798000000    -0.738000000    -2.323000000
C     3.873000000    -1.369000000    -1.056000000
H     3.685000000    -2.415000000    -0.826000000
C     4.280000000    -0.612000000     0.048000000
O     4.583000000    -1.258000000     1.189000000
C     3.680000000    -1.078000000     2.319000000
H     2.804000000    -0.597000000     1.859000000
C     3.252000000    -2.396000000     2.930000000
C     2.469000000    -2.352000000     4.127000000
H     2.337000000    -1.416000000     4.663000000
C     3.383000000    -3.641000000     2.203000000
H     3.593000000    -3.733000000     1.141000000
C     2.694000000    -4.752000000     2.686000000
O     2.780000000    -5.984000000     2.038000000
C     2.092000000    -4.732000000     3.961000000
H     1.721000000    -5.667000000     4.375000000
C     1.988000000    -3.510000000     4.723000000
O     1.487000000    -3.599000000     6.057000000
C     0.754000000    -2.599000000     6.485000000
C    -0.425000000    -2.185000000     5.874000000
H    -0.772000000    -2.732000000     5.001000000
C     1.302000000    -1.909000000     7.553000000
H     2.144000000    -2.290000000     8.125000000
C     0.566000000    -0.824000000     8.072000000
H     0.952000000    -0.333000000     8.962000000
C    -0.599000000    -0.404000000     7.461000000
H    -1.167000000     0.463000000     7.788000000
C    -1.117000000    -1.125000000     6.406000000
O    -2.244000000    -0.741000000     5.790000000
C    -2.474000000     0.418000000     5.157000000
C    -3.772000000     0.946000000     5.229000000
H    -4.608000000     0.379000000     5.629000000
C    -4.036000000     1.973000000     4.287000000
O    -5.383000000     2.238000000     4.159000000
C    -5.810000000     2.806000000     2.987000000
C    -5.875000000     2.021000000     1.829000000
H    -5.792000000     0.940000000     1.908000000
C    -6.127000000     4.155000000     2.883000000
H    -5.955000000     4.775000000     3.759000000
C    -6.486000000     4.692000000     1.618000000
H    -6.739000000     5.746000000     1.534000000
C    -6.579000000     3.839000000     0.502000000
H    -6.930000000     4.343000000    -0.395000000
C    -6.273000000     2.532000000     0.606000000
O    -6.563000000     1.651000000    -0.381000000
C    -5.712000000     1.330000000    -1.460000000
C    -5.963000000     0.280000000    -2.349000000
H    -6.868000000    -0.307000000    -2.216000000
C    -5.074000000    -0.057000000    -3.345000000
O    -5.391000000    -1.099000000    -4.214000000
C    -4.421000000    -1.671000000    -5.062000000
C    -3.688000000    -2.859000000    -4.663000000
H    -4.001000000    -3.284000000    -3.713000000
C    -4.105000000    -1.015000000    -6.258000000
H    -4.648000000    -0.110000000    -6.519000000
C    -3.144000000    -1.567000000    -7.070000000
H    -2.968000000    -1.077000000    -8.024000000
C    -2.413000000    -2.678000000    -6.718000000
H    -1.572000000    -3.023000000    -7.314000000
C    -2.694000000    -3.286000000    -5.510000000
O    -1.820000000    -4.271000000    -5.035000000
C    -0.683000000    -4.185000000    -4.282000000
C    -0.067000000    -5.328000000    -3.755000000
H    -0.511000000    -6.318000000    -3.816000000
C     1.068000000    -5.152000000    -2.977000000
O     1.628000000    -6.323000000    -2.554000000
C     2.601000000    -6.348000000    -1.594000000
C     3.919000000    -6.551000000    -2.041000000
H     4.212000000    -6.777000000    -3.063000000
C     4.882000000    -6.580000000    -0.980000000
H     5.941000000    -6.750000000    -1.156000000
C     4.510000000    -6.463000000     0.370000000
H     5.173000000    -6.572000000     1.225000000
C     3.175000000    -6.214000000     0.717000000
C     2.255000000    -6.106000000    -0.273000000
H     1.215000000    -5.899000000    -0.032000000
C    -0.788000000    -2.299000000    -0.884000000
H    -1.273000000    -3.036000000    -1.520000000
C    -0.567000000    -1.033000000    -1.377000000
H    -0.790000000    -0.772000000    -2.408000000
C    -0.002000000    -0.092000000    -0.563000000
H     0.190000000     0.950000000    -0.934000000
C     0.269000000    -0.417000000     0.767000000
H     0.600000000     0.372000000     1.437000000
C     0.007000000    -1.699000000     1.285000000
H     0.309000000    -1.888000000     2.312000000
C    -0.450000000    -2.717000000     0.410000000
C    -0.758000000    -4.128000000     0.936000000
O    -0.928000000    -4.180000000     2.134000000
O    -1.097000000    -5.023000000     0.221000000
O    -3.981000000    -9.155000000     0.436000000
H    -4.499000000    -8.957000000    -0.344000000
H    -3.783000000    -8.299000000     0.816000000
O    -2.756000000    -4.889000000     6.981000000
H    -2.281000000    -4.884000000     6.150000000
H    -3.612000000    -4.518000000     6.770000000
O    -0.342000000    -9.265000000     5.229000000
H    -0.914000000    -9.093000000     4.481000000
H    -0.059000000    -8.398000000     5.518000000
O    -3.258000000    -3.274000000     3.109000000
H    -2.412000000    -3.477000000     2.711000000
H    -3.677000000    -4.126000000     3.230000000
O    -6.249000000    -2.981000000    -0.788000000
H    -5.799000000    -2.205000000    -0.453000000
H    -7.174000000    -2.735000000    -0.799000000
O    -3.209000000    -6.747000000     1.547000000
H    -2.643000000    -6.019000000     1.289000000
H    -3.496000000    -6.524000000     2.433000000
O     0.292000000    -9.304000000     0.006000000
H    -0.589000000    -9.677000000     0.032000000
H     0.227000000    -8.580000000    -0.616000000
O    -1.440000000    -7.120000000    -1.092000000
H    -1.309000000    -6.249000000    -0.716000000
H    -2.391000000    -7.225000000    -1.128000000
O    -5.358000000    -7.815000000    -1.409000000
H    -5.432000000    -6.956000000    -0.994000000
H    -4.851000000    -7.654000000    -2.205000000
O    -5.502000000    -5.378000000    -0.209000000
H    -5.842000000    -4.535000000    -0.509000000
H    -4.656000000    -5.168000000     0.185000000
O    -0.209000000    -6.751000000     2.851000000
H     0.514000000    -6.878000000     2.237000000
H    -0.617000000    -5.930000000     2.575000000
O    -4.399000000    -5.644000000     3.850000000
H    -4.374000000    -6.228000000     4.608000000
H    -5.330000000    -5.465000000     3.716000000
O     3.049000000    -9.492000000     0.622000000
H     2.154000000    -9.206000000     0.442000000
H     3.118000000    -9.480000000     1.576000000
O     0.743000000    -6.631000000     6.510000000
H     0.325000000    -5.796000000     6.301000000
H     0.575000000    -6.756000000     7.444000000
O    -1.855000000    -8.998000000     3.190000000
H    -1.820000000    -8.130000000     2.787000000
H    -2.099000000    -9.584000000     2.473000000
O    -4.291000000    -1.625000000     0.825000000
H    -3.747000000    -0.859000000     0.644000000
H    -3.708000000    -2.231000000     1.281000000
O     1.864000000    -9.325000000     3.200000000
H     1.839000000   -10.118000000     3.736000000
H     0.944000000    -9.125000000     3.026000000
O    -1.509000000    -5.204000000     4.731000000
H    -1.557000000    -4.678000000     3.932000000
H    -0.973000000    -5.959000000     4.488000000
O    -5.208000000    -1.693000000     3.939000000
H    -5.301000000    -1.865000000     3.002000000
H    -4.374000000    -2.098000000     4.176000000
