215
-1447.50494
C    -2.895000000     2.549000000     3.209000000
H    -3.131000000     2.882000000     2.201000000
C    -1.586000000     2.503000000     3.677000000
C    -1.371000000     1.852000000     4.900000000
H    -0.417000000     1.693000000     5.398000000
C    -0.467000000     3.023000000     2.835000000
O    -0.865000000     4.262000000     2.287000000
H    -0.470000000     2.284000000     2.020000000
O     0.721000000     3.076000000     3.594000000
C     1.905000000     2.693000000     3.041000000
C     2.410000000     1.454000000     3.418000000
H     1.790000000     0.820000000     4.047000000
C     3.526000000     0.942000000     2.718000000
O     3.870000000    -0.368000000     2.885000000
C     4.154000000     1.640000000     1.720000000
C     5.372000000     1.112000000     0.987000000
H     5.925000000     1.995000000     0.658000000
C     5.037000000     0.344000000    -0.204000000
C     4.852000000     0.954000000    -1.487000000
H     5.026000000     2.013000000    -1.663000000
H     6.099000000     0.621000000     1.637000000
C     3.592000000     2.873000000     1.358000000
H     4.126000000     3.426000000     0.589000000
C     2.502000000     3.490000000     2.024000000
C     1.964000000     4.863000000     1.558000000
H     2.826000000     5.456000000     1.243000000
H     1.600000000     5.391000000     2.441000000
C     0.832000000     4.819000000     0.586000000
C     1.188000000     4.929000000    -0.769000000
H     2.215000000     4.984000000    -1.119000000
C    -0.495000000     4.542000000     0.988000000
C    -1.457000000     4.444000000     0.038000000
H    -2.470000000     4.218000000     0.363000000
C    -1.105000000     4.582000000    -1.297000000
O    -2.058000000     4.300000000    -2.210000000
C    -2.102000000     2.887000000    -2.558000000
C    -3.491000000     2.246000000    -2.518000000
C    -3.715000000     0.884000000    -2.837000000
H    -2.885000000     0.281000000    -3.196000000
C    -4.558000000     2.939000000    -1.980000000
H    -4.402000000     3.991000000    -1.755000000
O    -1.519000000     2.861000000    -3.962000000
H    -1.458000000     2.232000000    -1.952000000
C     0.212000000     4.843000000    -1.726000000
C     0.516000000     4.756000000    -3.213000000
H     1.460000000     5.254000000    -3.447000000
H    -0.342000000     5.161000000    -3.754000000
C     0.790000000     3.296000000    -3.601000000
C     2.122000000     2.749000000    -3.499000000
H     2.910000000     3.419000000    -3.165000000
C    -0.221000000     2.442000000    -4.012000000
C     0.036000000     1.073000000    -4.195000000
H    -0.713000000     0.349000000    -4.506000000
C     1.324000000     0.556000000    -4.237000000
O     1.501000000    -0.799000000    -4.482000000
C     1.899000000    -1.736000000    -3.429000000
C     1.158000000    -3.048000000    -3.428000000
C    -0.149000000    -3.138000000    -3.703000000
H    -0.646000000    -2.177000000    -3.807000000
C     1.856000000    -4.242000000    -3.043000000
H     2.931000000    -4.285000000    -2.887000000
O     3.319000000    -1.768000000    -3.371000000
H     1.701000000    -1.165000000    -2.510000000
C     2.379000000     1.379000000    -3.822000000
C     3.838000000     0.957000000    -3.866000000
H     4.459000000     1.841000000    -4.026000000
H     4.065000000     0.325000000    -4.727000000
C     4.328000000     0.253000000    -2.549000000
C     3.930000000    -1.038000000    -2.371000000
C     4.115000000    -1.668000000    -1.153000000
H     3.882000000    -2.721000000    -1.014000000
C     4.647000000    -0.990000000    -0.099000000
O     4.675000000    -1.596000000     1.114000000
C     3.485000000    -1.321000000     1.876000000
H     2.703000000    -0.771000000     1.332000000
C     2.809000000    -2.560000000     2.479000000
C     1.803000000    -2.459000000     3.381000000
H     1.612000000    -1.504000000     3.862000000
C     3.106000000    -3.802000000     1.991000000
H     3.748000000    -3.877000000     1.118000000
C     2.536000000    -4.929000000     2.570000000
O     2.959000000    -6.124000000     2.121000000
C     1.545000000    -4.853000000     3.497000000
H     1.166000000    -5.729000000     4.016000000
C     1.161000000    -3.579000000     3.878000000
O     0.231000000    -3.429000000     4.951000000
C     0.083000000    -2.385000000     5.820000000
C    -1.109000000    -1.644000000     5.806000000
H    -1.994000000    -1.909000000     5.233000000
C     1.146000000    -1.902000000     6.548000000
H     2.159000000    -2.297000000     6.552000000
C     1.060000000    -0.672000000     7.256000000
H     1.933000000    -0.302000000     7.788000000
C    -0.106000000     0.068000000     7.331000000
H    -0.188000000     0.986000000     7.908000000
C    -1.201000000    -0.472000000     6.602000000
O    -2.299000000     0.349000000     6.603000000
C    -2.455000000     1.211000000     5.535000000
C    -3.738000000     1.234000000     5.055000000
H    -4.513000000     0.731000000     5.628000000
C    -4.028000000     2.029000000     3.932000000
O    -5.302000000     1.881000000     3.348000000
C    -5.685000000     2.819000000     2.407000000
C    -5.986000000     2.362000000     1.108000000
H    -5.994000000     1.338000000     0.744000000
C    -5.792000000     4.175000000     2.792000000
H    -5.394000000     4.560000000     3.727000000
C    -6.275000000     5.117000000     1.847000000
H    -6.364000000     6.164000000     2.127000000
C    -6.644000000     4.665000000     0.552000000
H    -7.075000000     5.324000000    -0.197000000
C    -6.505000000     3.290000000     0.198000000
O    -6.724000000     2.863000000    -1.065000000
C    -5.740000000     2.243000000    -1.722000000
C    -5.875000000     0.917000000    -1.956000000
H    -6.842000000     0.477000000    -1.727000000
C    -4.924000000     0.246000000    -2.600000000
O    -5.245000000    -1.083000000    -2.850000000
C    -4.599000000    -1.817000000    -3.795000000
C    -3.766000000    -2.893000000    -3.476000000
H    -3.704000000    -3.199000000    -2.435000000
C    -4.829000000    -1.493000000    -5.169000000
H    -5.501000000    -0.677000000    -5.420000000
C    -4.214000000    -2.210000000    -6.195000000
H    -4.418000000    -1.987000000    -7.239000000
C    -3.312000000    -3.263000000    -5.857000000
H    -2.721000000    -3.766000000    -6.619000000
C    -3.101000000    -3.628000000    -4.513000000
O    -2.108000000    -4.523000000    -4.133000000
C    -0.805000000    -4.327000000    -3.798000000
C    -0.140000000    -5.478000000    -3.532000000
H    -0.717000000    -6.397000000    -3.464000000
C     1.141000000    -5.447000000    -3.020000000
O     1.779000000    -6.547000000    -2.535000000
C     2.732000000    -6.477000000    -1.600000000
C     4.009000000    -6.817000000    -1.969000000
H     4.365000000    -6.991000000    -2.982000000
C     4.956000000    -6.992000000    -0.944000000
H     5.985000000    -7.227000000    -1.202000000
C     4.621000000    -6.852000000     0.419000000
H     5.381000000    -7.001000000     1.182000000
C     3.305000000    -6.415000000     0.781000000
C     2.397000000    -6.275000000    -0.255000000
H     1.365000000    -6.057000000     0.011000000
C    -1.663000000    -1.608000000    -0.609000000
H    -2.213000000    -2.114000000    -1.399000000
C    -0.986000000    -0.460000000    -0.928000000
H    -1.024000000    -0.135000000    -1.965000000
C    -0.165000000     0.123000000    -0.043000000
H     0.196000000     1.039000000    -0.302000000
C     0.014000000    -0.349000000     1.201000000
H     0.696000000     0.170000000     1.870000000
C    -0.709000000    -1.458000000     1.591000000
H    -0.641000000    -1.832000000     2.610000000
C    -1.563000000    -2.069000000     0.742000000
C    -2.385000000    -3.224000000     1.160000000
O    -2.220000000    -3.851000000     2.239000000
O    -3.367000000    -3.560000000     0.515000000
O    -4.713000000    -7.878000000    -0.136000000
H    -4.560000000    -7.775000000    -1.075000000
H    -4.715000000    -6.984000000     0.206000000
O    -5.961000000    -4.684000000    -1.336000000
H    -6.616000000    -4.799000000    -0.647000000
H    -5.433000000    -3.941000000    -1.043000000
O    -3.946000000    -4.251000000     6.948000000
H    -3.308000000    -4.095000000     6.251000000
H    -4.639000000    -4.761000000     6.529000000
O    -4.275000000    -2.649000000     3.469000000
H    -3.513000000    -3.085000000     3.088000000
H    -4.843000000    -3.365000000     3.754000000
O    -7.661000000    -3.720000000     0.741000000
H    -6.979000000    -3.060000000     0.865000000
H    -8.381000000    -3.246000000     0.326000000
O    -5.010000000    -5.458000000     1.257000000
H    -4.372000000    -4.815000000     0.950000000
H    -5.326000000    -5.105000000     2.088000000
O    -3.417000000    -7.263000000    -2.646000000
H    -3.735000000    -6.597000000    -3.256000000
H    -3.615000000    -8.095000000    -3.076000000
O    -0.390000000    -8.653000000    -1.182000000
H     0.209000000    -9.004000000    -0.523000000
H    -0.640000000    -7.793000000    -0.844000000
O    -1.861000000    -5.947000000    -0.534000000
H    -2.330000000    -5.136000000    -0.336000000
H    -2.431000000    -6.411000000    -1.147000000
O    -5.958000000    -6.085000000    -3.747000000
H    -5.836000000    -5.441000000    -3.049000000
H    -6.242000000    -5.570000000    -4.502000000
O    -7.940000000    -6.361000000     1.212000000
H    -8.256000000    -5.463000000     1.122000000
H    -6.995000000    -6.298000000     1.068000000
O    -1.351000000    -6.386000000     2.023000000
H    -1.511000000    -5.487000000     2.310000000
H    -1.487000000    -6.363000000     1.076000000
O    -6.181000000    -4.630000000     3.698000000
H    -5.985000000    -5.286000000     4.367000000
H    -7.092000000    -4.386000000     3.862000000
O    -0.954000000    -6.388000000     6.829000000
H    -1.473000000    -6.142000000     7.594000000
H    -1.347000000    -5.899000000     6.106000000
O    -3.098000000    -7.802000000     3.491000000
H    -2.595000000    -7.290000000     2.858000000
H    -2.852000000    -8.710000000     3.314000000
O    -5.531000000    -1.952000000     0.723000000
H    -5.527000000    -1.292000000     0.030000000
H    -4.672000000    -2.371000000     0.660000000
O     0.351000000    -8.546000000     3.141000000
H    -0.074000000    -9.404000000     3.155000000
H    -0.318000000    -7.954000000     2.795000000
O    -2.335000000    -5.280000000     4.642000000
H    -1.978000000    -4.609000000     4.061000000
H    -2.524000000    -6.020000000     4.065000000
O    -6.659000000    -0.801000000     3.098000000
H    -5.904000000    -0.831000000     3.686000000
H    -6.310000000    -1.066000000     2.247000000
