215
-1448.41034
C    -3.328000000     1.808000000     3.289000000
H    -3.711000000     2.457000000     2.506000000
C    -2.067000000     2.075000000     3.797000000
C    -1.680000000     1.387000000     4.886000000
H    -0.646000000     1.449000000     5.217000000
C    -1.090000000     2.930000000     2.923000000
O    -1.598000000     4.119000000     2.379000000
H    -0.736000000     2.294000000     2.099000000
O     0.060000000     3.332000000     3.722000000
C     1.315000000     3.163000000     3.229000000
C     2.188000000     2.121000000     3.603000000
H     1.811000000     1.462000000     4.381000000
C     3.299000000     1.777000000     2.861000000
O     3.987000000     0.600000000     3.200000000
C     3.604000000     2.629000000     1.810000000
C     4.867000000     2.401000000     0.988000000
H     5.232000000     3.346000000     0.581000000
C     4.677000000     1.391000000    -0.147000000
C     4.342000000     1.903000000    -1.382000000
H     4.315000000     2.986000000    -1.470000000
H     5.676000000     2.000000000     1.602000000
C     2.952000000     3.908000000     1.582000000
H     3.190000000     4.605000000     0.783000000
C     1.805000000     4.155000000     2.285000000
C     0.966000000     5.297000000     1.910000000
H     1.474000000     6.169000000     1.494000000
H     0.533000000     5.712000000     2.822000000
C    -0.090000000     4.903000000     0.749000000
C     0.263000000     4.942000000    -0.612000000
H     1.138000000     5.450000000    -1.009000000
C    -1.361000000     4.442000000     1.116000000
C    -2.218000000     3.937000000     0.160000000
H    -3.165000000     3.504000000     0.470000000
C    -1.928000000     3.988000000    -1.197000000
O    -2.882000000     3.393000000    -2.063000000
C    -2.500000000     2.123000000    -2.636000000
C    -3.721000000     1.262000000    -2.867000000
C    -3.908000000     0.390000000    -3.937000000
H    -3.175000000     0.392000000    -4.740000000
C    -4.640000000     1.214000000    -1.870000000
H    -4.472000000     1.823000000    -0.985000000
O    -1.822000000     2.125000000    -3.969000000
H    -1.740000000     1.710000000    -1.955000000
C    -0.626000000     4.443000000    -1.580000000
C    -0.287000000     4.612000000    -3.083000000
H     0.361000000     5.483000000    -3.203000000
H    -1.119000000     4.709000000    -3.785000000
C     0.304000000     3.275000000    -3.597000000
C     1.691000000     3.031000000    -3.604000000
H     2.254000000     3.924000000    -3.347000000
C    -0.472000000     2.182000000    -3.974000000
C     0.105000000     0.943000000    -4.360000000
H    -0.530000000     0.090000000    -4.582000000
C     1.474000000     0.804000000    -4.440000000
O     1.995000000    -0.490000000    -4.712000000
C     2.262000000    -1.339000000    -3.562000000
C     1.747000000    -2.739000000    -3.712000000
C     0.514000000    -2.995000000    -4.295000000
H     0.057000000    -2.100000000    -4.710000000
C     2.381000000    -3.806000000    -3.152000000
H     3.305000000    -3.677000000    -2.594000000
O     3.648000000    -1.189000000    -3.225000000
H     1.748000000    -0.925000000    -2.683000000
C     2.276000000     1.845000000    -4.055000000
C     3.781000000     1.644000000    -3.817000000
H     4.479000000     2.449000000    -4.057000000
H     4.170000000     0.917000000    -4.533000000
C     4.049000000     1.104000000    -2.480000000
C     4.075000000    -0.299000000    -2.296000000
C     4.397000000    -0.853000000    -1.073000000
H     4.387000000    -1.937000000    -0.994000000
C     4.678000000    -0.017000000     0.012000000
O     4.890000000    -0.576000000     1.303000000
C     3.788000000    -0.538000000     2.269000000
H     2.921000000    -0.231000000     1.666000000
C     3.408000000    -1.866000000     3.034000000
C     2.762000000    -1.808000000     4.273000000
H     2.724000000    -0.913000000     4.888000000
C     3.403000000    -3.030000000     2.267000000
H     3.725000000    -3.011000000     1.229000000
C     2.766000000    -4.151000000     2.777000000
O     2.509000000    -5.338000000     2.024000000
C     2.193000000    -4.122000000     4.045000000
H     1.647000000    -5.000000000     4.381000000
C     2.120000000    -2.931000000     4.781000000
O     1.582000000    -2.940000000     6.081000000
C     1.126000000    -1.848000000     6.701000000
C    -0.126000000    -1.363000000     6.432000000
H    -0.711000000    -1.759000000     5.605000000
C     1.827000000    -1.321000000     7.812000000
H     2.834000000    -1.650000000     8.057000000
C     1.297000000    -0.288000000     8.536000000
H     1.823000000    -0.026000000     9.451000000
C     0.063000000     0.312000000     8.169000000
H    -0.382000000     1.137000000     8.720000000
C    -0.729000000    -0.332000000     7.183000000
O    -2.084000000     0.004000000     6.906000000
C    -2.498000000     0.601000000     5.669000000
C    -3.771000000     0.265000000     5.152000000
H    -4.446000000    -0.371000000     5.719000000
C    -4.201000000     0.929000000     4.007000000
O    -5.503000000     0.724000000     3.630000000
C    -6.066000000     1.357000000     2.527000000
C    -6.031000000     0.696000000     1.282000000
H    -5.403000000    -0.191000000     1.292000000
C    -6.790000000     2.518000000     2.630000000
H    -6.836000000     2.898000000     3.647000000
C    -7.460000000     3.042000000     1.521000000
H    -8.151000000     3.869000000     1.663000000
C    -7.341000000     2.449000000     0.252000000
H    -7.953000000     2.661000000    -0.621000000
C    -6.708000000     1.220000000     0.177000000
O    -6.783000000     0.370000000    -0.941000000
C    -5.753000000     0.364000000    -1.866000000
C    -5.869000000    -0.579000000    -2.881000000
H    -6.748000000    -1.217000000    -2.930000000
C    -4.942000000    -0.625000000    -3.912000000
O    -5.083000000    -1.538000000    -4.865000000
C    -3.931000000    -1.898000000    -5.520000000
C    -3.055000000    -2.689000000    -4.818000000
H    -3.205000000    -2.903000000    -3.763000000
C    -3.714000000    -1.721000000    -6.941000000
H    -4.405000000    -1.152000000    -7.558000000
C    -2.653000000    -2.369000000    -7.628000000
H    -2.485000000    -2.234000000    -8.693000000
C    -1.857000000    -3.251000000    -6.881000000
H    -1.101000000    -3.776000000    -7.459000000
C    -2.009000000    -3.399000000    -5.519000000
O    -1.329000000    -4.440000000    -4.889000000
C    -0.029000000    -4.241000000    -4.331000000
C     0.696000000    -5.362000000    -3.927000000
H     0.279000000    -6.360000000    -4.030000000
C     1.844000000    -5.096000000    -3.253000000
O     2.590000000    -6.096000000    -2.640000000
C     3.189000000    -5.962000000    -1.438000000
C     4.520000000    -6.344000000    -1.351000000
H     5.145000000    -6.611000000    -2.199000000
C     5.169000000    -6.530000000    -0.104000000
H     6.241000000    -6.711000000    -0.124000000
C     4.486000000    -6.140000000     1.028000000
H     5.010000000    -6.174000000     1.980000000
C     3.196000000    -5.681000000     0.905000000
C     2.509000000    -5.607000000    -0.310000000
H     1.481000000    -5.260000000    -0.367000000
C    -1.592000000    -1.449000000    -0.458000000
H    -2.267000000    -1.767000000    -1.249000000
C    -0.371000000    -0.857000000    -0.743000000
H    -0.099000000    -0.694000000    -1.783000000
C     0.461000000    -0.408000000     0.287000000
H     1.339000000     0.157000000     0.041000000
C     0.065000000    -0.483000000     1.603000000
H     0.673000000    -0.041000000     2.387000000
C    -1.193000000    -1.003000000     1.899000000
H    -1.372000000    -0.980000000     2.970000000
C    -2.107000000    -1.456000000     0.860000000
C    -3.439000000    -2.152000000     1.159000000
O    -3.883000000    -2.279000000     2.292000000
O    -4.015000000    -2.572000000     0.216000000
O    -5.919000000    -4.770000000     4.184000000
H    -6.540000000    -5.178000000     4.788000000
H    -6.330000000    -3.941000000     3.941000000
O    -4.722000000    -5.007000000     1.750000000
H    -5.150000000    -4.985000000     2.606000000
H    -4.606000000    -4.086000000     1.517000000
O    -5.711000000    -2.331000000     6.731000000
H    -6.305000000    -2.665000000     7.403000000
H    -6.287000000    -1.932000000     6.079000000
O    -3.980000000    -4.406000000    -1.823000000
H    -4.905000000    -4.637000000    -1.914000000
H    -3.935000000    -3.916000000    -1.002000000
O    -2.931000000    -2.627000000     7.310000000
H    -2.666000000    -2.698000000     6.392000000
H    -3.879000000    -2.760000000     7.297000000
O    -8.971000000    -4.000000000    -1.245000000
H    -8.710000000    -4.738000000    -1.796000000
H    -8.153000000    -3.543000000    -1.051000000
O    -7.588000000    -0.792000000     5.388000000
H    -7.479000000     0.128000000     5.629000000
H    -8.529000000    -0.892000000     5.245000000
O    -6.497000000    -2.300000000     3.187000000
H    -5.586000000    -2.287000000     2.894000000
H    -6.544000000    -1.614000000     3.853000000
O    -9.022000000    -3.339000000     3.806000000
H    -8.420000000    -2.628000000     3.589000000
H    -8.739000000    -3.636000000     4.672000000
O    -1.834000000    -5.839000000     0.916000000
H    -2.787000000    -5.773000000     0.969000000
H    -1.561000000    -5.024000000     0.494000000
O    -9.848000000    -0.067000000     1.023000000
H    -9.633000000     0.204000000     0.131000000
H    -9.068000000     0.149000000     1.534000000
O    -6.192000000    -5.917000000    -1.842000000
H    -6.545000000    -6.272000000    -2.658000000
H    -6.951000000    -5.849000000    -1.262000000
O    -4.425000000    -7.229000000    -0.314000000
H    -5.012000000    -6.975000000    -1.026000000
H    -4.461000000    -6.495000000     0.299000000
O    -1.089000000    -5.458000000     6.125000000
H    -1.067000000    -4.548000000     6.421000000
H    -1.932000000    -5.545000000     5.680000000
O    -3.407000000    -5.622000000     4.657000000
H    -3.596000000    -6.502000000     4.330000000
H    -4.266000000    -5.210000000     4.746000000
O    -0.794000000    -7.431000000     2.900000000
H    -0.991000000    -6.933000000     2.107000000
H    -1.176000000    -6.914000000     3.609000000
O    -2.309000000    -6.507000000    -2.105000000
H    -2.694000000    -5.631000000    -2.092000000
H    -2.757000000    -6.975000000    -1.400000000
O    -2.577000000    -2.830000000     4.549000000
H    -2.957000000    -2.310000000     3.841000000
H    -2.630000000    -3.734000000     4.237000000
O    -6.588000000    -2.769000000    -0.561000000
H    -6.775000000    -1.842000000    -0.711000000
H    -5.671000000    -2.788000000    -0.290000000
