215
-1449.24608
C    -3.676000000     2.480000000     2.760000000
H    -3.869000000     3.024000000     1.839000000
C    -2.428000000     2.561000000     3.373000000
C    -2.305000000     1.979000000     4.618000000
H    -1.348000000     2.088000000     5.123000000
C    -1.231000000     3.276000000     2.681000000
O    -1.705000000     4.390000000     1.984000000
H    -0.682000000     2.609000000     2.001000000
O    -0.292000000     3.825000000     3.627000000
C     0.977000000     3.481000000     3.388000000
C     1.553000000     2.357000000     3.902000000
H     1.054000000     1.913000000     4.760000000
C     2.701000000     1.748000000     3.397000000
O     2.942000000     0.436000000     3.813000000
C     3.417000000     2.371000000     2.426000000
C     4.752000000     1.834000000     1.934000000
H     5.417000000     2.679000000     1.746000000
C     4.688000000     0.911000000     0.755000000
C     4.715000000     1.391000000    -0.578000000
H     4.911000000     2.438000000    -0.798000000
H     5.165000000     1.208000000     2.728000000
C     2.928000000     3.605000000     1.912000000
H     3.516000000     4.149000000     1.178000000
C     1.686000000     4.158000000     2.390000000
C     1.136000000     5.389000000     1.756000000
H     1.942000000     6.091000000     1.533000000
H     0.593000000     6.020000000     2.463000000
C     0.250000000     4.937000000     0.577000000
C     0.764000000     4.996000000    -0.738000000
H     1.822000000     5.229000000    -0.825000000
C    -1.081000000     4.547000000     0.752000000
C    -1.801000000     4.091000000    -0.402000000
H    -2.840000000     3.773000000    -0.372000000
C    -1.275000000     4.008000000    -1.633000000
O    -1.956000000     3.453000000    -2.729000000
C    -1.699000000     2.093000000    -3.131000000
C    -2.955000000     1.315000000    -3.429000000
C    -2.905000000     0.109000000    -4.058000000
H    -2.026000000    -0.165000000    -4.636000000
C    -4.169000000     1.729000000    -2.855000000
H    -4.387000000     2.733000000    -2.499000000
O    -0.875000000     2.216000000    -4.284000000
H    -1.019000000     1.576000000    -2.438000000
C     0.034000000     4.466000000    -1.793000000
C     0.707000000     4.449000000    -3.161000000
H     1.562000000     5.124000000    -3.083000000
H    -0.030000000     4.887000000    -3.838000000
C     1.273000000     3.114000000    -3.585000000
C     2.593000000     2.752000000    -3.241000000
H     3.221000000     3.508000000    -2.777000000
C     0.441000000     2.120000000    -4.113000000
C     0.895000000     0.825000000    -4.306000000
H     0.216000000     0.088000000    -4.727000000
C     2.177000000     0.496000000    -3.893000000
O     2.592000000    -0.784000000    -4.162000000
C     2.673000000    -1.763000000    -3.057000000
C     2.263000000    -3.099000000    -3.549000000
C     1.393000000    -3.349000000    -4.608000000
H     1.127000000    -2.486000000    -5.213000000
C     2.744000000    -4.138000000    -2.787000000
H     3.362000000    -3.929000000    -1.918000000
O     3.967000000    -1.659000000    -2.450000000
H     1.897000000    -1.446000000    -2.345000000
C     3.045000000     1.425000000    -3.430000000
C     4.431000000     1.066000000    -3.064000000
H     4.997000000     1.999000000    -3.021000000
H     4.827000000     0.343000000    -3.780000000
C     4.472000000     0.554000000    -1.655000000
C     4.209000000    -0.797000000    -1.384000000
C     4.201000000    -1.339000000    -0.131000000
H     3.977000000    -2.391000000     0.032000000
C     4.385000000    -0.450000000     0.938000000
O     4.159000000    -0.970000000     2.254000000
C     2.886000000    -0.724000000     2.878000000
H     2.258000000    -0.388000000     2.040000000
C     2.087000000    -1.974000000     3.351000000
C     1.298000000    -1.946000000     4.554000000
H     1.333000000    -1.025000000     5.130000000
C     2.203000000    -3.188000000     2.670000000
H     2.812000000    -3.305000000     1.777000000
C     1.461000000    -4.291000000     3.054000000
O     1.404000000    -5.422000000     2.264000000
C     0.645000000    -4.214000000     4.202000000
H     0.183000000    -5.153000000     4.495000000
C     0.569000000    -3.037000000     4.965000000
O    -0.209000000    -3.053000000     6.083000000
C    -0.638000000    -1.915000000     6.671000000
C    -1.582000000    -1.079000000     6.178000000
H    -2.009000000    -1.250000000     5.193000000
C    -0.030000000    -1.604000000     7.868000000
H     0.611000000    -2.355000000     8.323000000
C    -0.393000000    -0.602000000     8.711000000
H     0.148000000    -0.413000000     9.635000000
C    -1.427000000     0.229000000     8.238000000
H    -1.934000000     0.993000000     8.822000000
C    -1.982000000     0.039000000     6.937000000
O    -3.059000000     0.806000000     6.554000000
C    -3.349000000     1.384000000     5.271000000
C    -4.581000000     1.258000000     4.649000000
H    -5.407000000     0.811000000     5.197000000
C    -4.821000000     1.845000000     3.389000000
O    -6.043000000     1.774000000     2.791000000
C    -6.319000000     2.254000000     1.533000000
C    -6.232000000     1.390000000     0.464000000
H    -6.042000000     0.348000000     0.709000000
C    -6.506000000     3.690000000     1.341000000
H    -6.408000000     4.402000000     2.157000000
C    -6.789000000     4.111000000     0.099000000
H    -7.082000000     5.126000000    -0.158000000
C    -6.781000000     3.255000000    -0.961000000
H    -7.169000000     3.658000000    -1.893000000
C    -6.375000000     1.931000000    -0.853000000
O    -6.289000000     1.055000000    -1.947000000
C    -5.128000000     0.697000000    -2.605000000
C    -5.012000000    -0.567000000    -3.160000000
H    -5.822000000    -1.285000000    -3.057000000
C    -3.868000000    -0.879000000    -3.836000000
O    -3.680000000    -2.132000000    -4.352000000
C    -2.839000000    -2.611000000    -5.447000000
C    -1.795000000    -3.538000000    -5.209000000
H    -1.569000000    -3.734000000    -4.163000000
C    -3.028000000    -2.120000000    -6.738000000
H    -3.799000000    -1.371000000    -6.903000000
C    -2.276000000    -2.698000000    -7.798000000
H    -2.399000000    -2.336000000    -8.815000000
C    -1.249000000    -3.585000000    -7.526000000
H    -0.588000000    -3.913000000    -8.325000000
C    -0.972000000    -4.015000000    -6.231000000
O     0.059000000    -4.864000000    -5.980000000
C     0.976000000    -4.659000000    -4.951000000
C     1.471000000    -5.687000000    -4.170000000
H     1.167000000    -6.703000000    -4.409000000
C     2.353000000    -5.439000000    -3.144000000
O     2.665000000    -6.497000000    -2.290000000
C     3.029000000    -6.272000000    -0.944000000
C     4.359000000    -6.225000000    -0.577000000
H     5.118000000    -6.440000000    -1.325000000
C     4.756000000    -5.896000000     0.728000000
H     5.815000000    -5.846000000     0.968000000
C     3.849000000    -5.646000000     1.764000000
H     4.213000000    -5.517000000     2.780000000
C     2.453000000    -5.689000000     1.379000000
C     2.049000000    -5.887000000     0.036000000
H     1.000000000    -5.771000000    -0.226000000
C    -0.557000000    -0.779000000    -1.065000000
H    -0.691000000    -0.813000000    -2.143000000
C     0.269000000     0.275000000    -0.635000000
H     0.838000000     0.880000000    -1.338000000
C     0.287000000     0.578000000     0.716000000
H     0.730000000     1.484000000     1.170000000
C    -0.428000000    -0.231000000     1.634000000
H    -0.326000000    -0.031000000     2.698000000
C    -1.199000000    -1.305000000     1.173000000
H    -1.568000000    -2.048000000     1.875000000
C    -1.366000000    -1.544000000    -0.171000000
C    -2.099000000    -2.736000000    -0.790000000
O    -2.970000000    -3.271000000    -0.095000000
O    -1.808000000    -3.240000000    -1.820000000
O    -1.884000000    -9.666000000    -2.652000000
H    -2.550000000    -9.390000000    -2.022000000
H    -2.224000000   -10.483000000    -3.016000000
O    -2.764000000    -6.511000000     3.719000000
H    -2.602000000    -5.839000000     3.056000000
H    -3.108000000    -6.028000000     4.470000000
O    -6.870000000    -4.515000000    -1.091000000
H    -6.290000000    -4.950000000    -1.716000000
H    -6.404000000    -3.716000000    -0.847000000
O    -6.575000000    -1.995000000     2.356000000
H    -6.155000000    -2.209000000     1.522000000
H    -5.848000000    -1.783000000     2.942000000
O    -9.168000000    -5.833000000    -0.361000000
H    -8.872000000    -6.017000000     0.530000000
H    -8.438000000    -5.362000000    -0.764000000
O    -4.498000000    -4.272000000    -2.591000000
H    -4.034000000    -4.032000000    -1.789000000
H    -3.916000000    -3.992000000    -3.298000000
O    -2.065000000   -10.040000000     0.799000000
H    -1.460000000    -9.402000000     1.177000000
H    -2.625000000    -9.523000000     0.219000000
O    -4.589000000    -6.992000000    -0.892000000
H    -4.670000000    -6.443000000    -0.112000000
H    -3.800000000    -6.672000000    -1.329000000
O    -2.076000000    -5.892000000    -2.193000000
H    -2.204000000    -4.945000000    -2.135000000
H    -2.495000000    -6.141000000    -3.016000000
O    -4.092000000    -9.550000000    -1.067000000
H    -4.912000000   -10.041000000    -1.011000000
H    -4.364000000    -8.632000000    -1.101000000
O    -4.200000000     1.610000000    -6.364000000
H    -5.009000000     1.970000000    -6.726000000
H    -4.488000000     1.061000000    -5.634000000
O    -3.359000000    -6.459000000    -4.478000000
H    -3.141000000    -7.130000000    -5.125000000
H    -4.236000000    -6.165000000    -4.724000000
O    -7.126000000    -8.091000000    -2.373000000
H    -6.676000000    -7.796000000    -3.165000000
H    -6.665000000    -7.653000000    -1.658000000
O    -1.516000000    -7.186000000     0.251000000
H    -1.515000000    -6.751000000    -0.602000000
H    -2.235000000    -6.774000000     0.729000000
O    -5.719000000    -6.445000000     3.988000000
H    -5.012000000    -6.725000000     3.406000000
H    -5.303000000    -5.831000000     4.593000000
O    -4.758000000    -5.151000000     1.147000000
H    -4.237000000    -4.560000000     0.603000000
H    -5.554000000    -4.657000000     1.343000000
O     0.404000000    -8.763000000     1.437000000
H     0.997000000    -8.216000000     1.951000000
H    -0.149000000    -8.139000000     0.966000000
O    -5.450000000    -2.414000000    -0.402000000
H    -5.308000000    -2.400000000    -1.348000000
H    -4.572000000    -2.353000000    -0.027000000
O    -1.715000000    -4.653000000     2.062000000
H    -2.082000000    -4.144000000     1.339000000
H    -0.768000000    -4.548000000     1.972000000
