215
-1430.07816
C    -4.004000000     2.487000000     2.718000000
H    -4.228000000     3.050000000     1.816000000
C    -2.676000000     2.492000000     3.302000000
C    -2.451000000     1.614000000     4.405000000
H    -1.447000000     1.420000000     4.773000000
C    -1.532000000     3.120000000     2.511000000
O    -1.982000000     4.299000000     1.866000000
H    -1.136000000     2.457000000     1.727000000
O    -0.470000000     3.377000000     3.402000000
C     0.809000000     3.198000000     2.947000000
C     1.496000000     2.127000000     3.474000000
H     0.992000000     1.421000000     4.130000000
C     2.770000000     1.830000000     3.095000000
O     3.305000000     0.673000000     3.466000000
C     3.458000000     2.632000000     2.097000000
C     4.810000000     2.307000000     1.583000000
H     5.415000000     3.139000000     1.217000000
C     4.787000000     1.239000000     0.478000000
C     4.538000000     1.725000000    -0.847000000
H     4.484000000     2.797000000    -1.020000000
H     5.354000000     1.906000000     2.441000000
C     2.781000000     3.788000000     1.632000000
H     3.391000000     4.498000000     1.079000000
C     1.477000000     4.034000000     2.021000000
C     0.796000000     5.298000000     1.560000000
H     1.625000000     5.907000000     1.195000000
H     0.355000000     6.029000000     2.241000000
C    -0.144000000     4.915000000     0.364000000
C     0.376000000     4.855000000    -0.936000000
H     1.351000000     5.283000000    -1.154000000
C    -1.478000000     4.508000000     0.587000000
C    -2.267000000     3.942000000    -0.438000000
H    -3.261000000     3.598000000    -0.161000000
C    -1.676000000     3.806000000    -1.727000000
O    -2.421000000     3.272000000    -2.717000000
C    -2.107000000     1.923000000    -3.011000000
C    -3.380000000     1.011000000    -3.046000000
C    -3.269000000    -0.231000000    -3.667000000
H    -2.293000000    -0.488000000    -4.069000000
C    -4.541000000     1.373000000    -2.390000000
H    -4.680000000     2.365000000    -1.969000000
O    -1.357000000     1.841000000    -4.234000000
H    -1.568000000     1.452000000    -2.176000000
C    -0.412000000     4.308000000    -1.974000000
C     0.106000000     4.404000000    -3.438000000
H     0.850000000     5.145000000    -3.738000000
H    -0.753000000     4.515000000    -4.104000000
C     0.813000000     2.993000000    -3.835000000
C     2.119000000     2.819000000    -3.575000000
H     2.777000000     3.635000000    -3.287000000
C     0.040000000     1.878000000    -4.183000000
C     0.643000000     0.612000000    -4.457000000
H     0.017000000    -0.225000000    -4.755000000
C     1.973000000     0.462000000    -4.195000000
O     2.543000000    -0.770000000    -4.351000000
C     2.794000000    -1.517000000    -3.049000000
C     2.369000000    -2.934000000    -3.080000000
C     1.136000000    -3.301000000    -3.667000000
H     0.453000000    -2.522000000    -3.995000000
C     3.070000000    -3.902000000    -2.454000000
H     4.083000000    -3.639000000    -2.161000000
O     4.155000000    -1.366000000    -2.616000000
H     2.136000000    -1.021000000    -2.321000000
C     2.746000000     1.577000000    -3.730000000
C     4.191000000     1.295000000    -3.424000000
H     4.724000000     2.239000000    -3.562000000
H     4.591000000     0.649000000    -4.208000000
C     4.412000000     0.829000000    -1.964000000
C     4.418000000    -0.478000000    -1.648000000
C     4.597000000    -0.962000000    -0.380000000
H     4.305000000    -1.974000000    -0.113000000
C     4.718000000    -0.135000000     0.699000000
O     4.552000000    -0.663000000     1.981000000
C     3.269000000    -0.515000000     2.621000000
H     2.596000000    -0.298000000     1.778000000
C     2.829000000    -1.771000000     3.337000000
C     1.756000000    -1.743000000     4.235000000
H     1.437000000    -0.768000000     4.594000000
C     3.264000000    -2.951000000     2.806000000
H     4.112000000    -3.022000000     2.129000000
C     2.773000000    -4.158000000     3.296000000
O     3.191000000    -5.443000000     2.809000000
C     1.746000000    -4.193000000     4.202000000
H     1.400000000    -5.160000000     4.558000000
C     1.194000000    -2.998000000     4.644000000
O     0.196000000    -3.007000000     5.670000000
C    -0.246000000    -1.876000000     6.281000000
C    -1.460000000    -1.409000000     5.865000000
H    -2.027000000    -1.974000000     5.131000000
C     0.448000000    -1.173000000     7.264000000
H     1.392000000    -1.626000000     7.555000000
C     0.000000000    -0.023000000     7.835000000
H     0.492000000     0.537000000     8.626000000
C    -1.200000000     0.422000000     7.392000000
H    -1.509000000     1.408000000     7.728000000
C    -1.919000000    -0.248000000     6.419000000
O    -3.214000000     0.171000000     6.114000000
C    -3.465000000     0.851000000     4.957000000
C    -4.763000000     0.939000000     4.424000000
H    -5.606000000     0.346000000     4.767000000
C    -5.029000000     1.787000000     3.389000000
O    -6.398000000     1.889000000     2.958000000
C    -6.807000000     2.229000000     1.619000000
C    -6.417000000     1.405000000     0.469000000
H    -5.811000000     0.523000000     0.658000000
C    -7.530000000     3.376000000     1.464000000
H    -7.866000000     3.967000000     2.312000000
C    -8.062000000     3.649000000     0.235000000
H    -8.742000000     4.483000000     0.080000000
C    -7.789000000     2.835000000    -0.902000000
H    -8.198000000     2.966000000    -1.901000000
C    -6.987000000     1.729000000    -0.761000000
O    -6.884000000     0.778000000    -1.804000000
C    -5.683000000     0.499000000    -2.492000000
C    -5.601000000    -0.686000000    -3.190000000
H    -6.485000000    -1.317000000    -3.213000000
C    -4.354000000    -1.100000000    -3.758000000
O    -4.382000000    -2.256000000    -4.503000000
C    -3.224000000    -2.692000000    -5.069000000
C    -2.470000000    -3.696000000    -4.373000000
H    -2.897000000    -4.031000000    -3.431000000
C    -2.816000000    -2.255000000    -6.373000000
H    -3.357000000    -1.500000000    -6.938000000
C    -1.616000000    -2.718000000    -6.896000000
H    -1.314000000    -2.499000000    -7.917000000
C    -0.801000000    -3.561000000    -6.133000000
H     0.105000000    -4.020000000    -6.520000000
C    -1.305000000    -4.099000000    -4.943000000
O    -0.564000000    -4.969000000    -4.156000000
C     0.682000000    -4.588000000    -3.617000000
C     1.424000000    -5.532000000    -2.922000000
H     1.134000000    -6.573000000    -2.806000000
C     2.589000000    -5.167000000    -2.346000000
O     3.331000000    -6.170000000    -1.866000000
C     4.034000000    -5.948000000    -0.644000000
C     5.422000000    -5.935000000    -0.631000000
H     5.968000000    -5.984000000    -1.569000000
C     6.064000000    -5.688000000     0.602000000
H     7.142000000    -5.576000000     0.690000000
C     5.324000000    -5.585000000     1.760000000
H     5.796000000    -5.445000000     2.730000000
C     3.954000000    -5.597000000     1.690000000
C     3.297000000    -5.720000000     0.526000000
H     2.211000000    -5.702000000     0.472000000
C     0.364000000    -3.112000000     1.248000000
H     0.807000000    -4.083000000     1.043000000
C     0.986000000    -2.095000000     0.562000000
H     1.938000000    -2.367000000     0.112000000
C     0.454000000    -0.755000000     0.725000000
H     0.985000000     0.146000000     0.351000000
C    -0.650000000    -0.579000000     1.544000000
H    -0.974000000     0.451000000     1.670000000
C    -1.387000000    -1.654000000     2.005000000
H    -2.327000000    -1.495000000     2.527000000
C    -0.828000000    -2.924000000     1.912000000
C    -1.529000000    -4.031000000     2.592000000
O    -2.628000000    -3.891000000     2.967000000
O    -0.921000000    -5.066000000     2.608000000
O    -5.829000000    -3.822000000     7.506000000
H    -5.328000000    -3.561000000     6.734000000
H    -5.165000000    -4.035000000     8.162000000
O    -3.821000000    -3.908000000     5.506000000
H    -3.523000000    -3.738000000     4.613000000
H    -3.935000000    -4.857000000     5.544000000
O     2.766000000    -4.459000000     7.444000000
H     3.357000000    -4.084000000     6.791000000
H     1.898000000    -4.399000000     7.044000000
O    -1.398000000    -6.687000000    -1.978000000
H    -1.101000000    -6.130000000    -2.697000000
H    -2.344000000    -6.548000000    -1.942000000
O    -1.354000000    -7.149000000     8.337000000
H    -0.554000000    -7.586000000     8.628000000
H    -1.067000000    -6.277000000     8.067000000
O    -2.278000000    -4.168000000     8.130000000
H    -2.475000000    -4.399000000     7.223000000
H    -1.324000000    -4.227000000     8.191000000
O    -3.618000000    -5.143000000    -0.734000000
H    -4.397000000    -4.725000000    -1.101000000
H    -3.033000000    -4.415000000    -0.523000000
O    -1.995000000    -2.193000000    -0.801000000
H    -1.556000000    -1.824000000    -1.568000000
H    -1.282000000    -2.522000000    -0.253000000
O    -3.619000000    -6.384000000     2.081000000
H    -3.583000000    -6.063000000     1.180000000
H    -3.149000000    -5.723000000     2.589000000
O    -0.296000000    -6.824000000     0.467000000
H    -0.851000000    -6.531000000    -0.255000000
H    -0.440000000    -6.178000000     1.158000000
O     0.872000000    -9.105000000    -0.175000000
H     0.835000000    -9.715000000     0.561000000
H     0.586000000    -8.268000000     0.192000000
O    -0.054000000    -7.388000000     3.712000000
H    -0.459000000    -6.550000000     3.490000000
H     0.756000000    -7.405000000     3.203000000
O    -2.061000000    -8.627000000     1.592000000
H    -2.581000000    -8.082000000     2.183000000
H    -1.413000000    -8.027000000     1.222000000
O    -5.991000000    -5.678000000     3.923000000
H    -5.731000000    -4.896000000     3.436000000
H    -5.168000000    -6.045000000     4.244000000
O    -5.862000000    -7.984000000     0.869000000
H    -5.255000000    -7.386000000     1.305000000
H    -6.716000000    -7.560000000     0.950000000
O    -2.598000000    -8.610000000     4.983000000
H    -3.108000000    -8.645000000     4.173000000
H    -1.713000000    -8.383000000     4.698000000
O    -4.408000000    -2.532000000     0.806000000
H    -3.718000000    -2.184000000     0.242000000
H    -3.940000000    -2.938000000     1.535000000
O    -6.359000000    -3.212000000     2.604000000
H    -5.941000000    -2.906000000     1.799000000
H    -7.095000000    -3.745000000     2.305000000
O    -4.348000000    -6.486000000     6.176000000
H    -3.910000000    -7.327000000     6.047000000
H    -4.152000000    -6.250000000     7.083000000
