215
-1428.47230
C    -4.022000000     2.233000000     2.343000000
H    -4.116000000     2.411000000     1.275000000
C    -2.876000000     2.792000000     2.904000000
C    -2.593000000     2.528000000     4.262000000
H    -1.723000000     2.980000000     4.731000000
C    -1.819000000     3.461000000     2.064000000
O    -2.253000000     4.436000000     1.072000000
H    -1.445000000     2.655000000     1.415000000
O    -0.773000000     3.976000000     2.918000000
C     0.505000000     3.860000000     2.575000000
C     1.207000000     2.821000000     3.205000000
H     0.731000000     2.239000000     3.991000000
C     2.491000000     2.508000000     2.804000000
O     3.016000000     1.367000000     3.433000000
C     3.116000000     3.217000000     1.780000000
C     4.529000000     2.830000000     1.260000000
H     5.058000000     3.695000000     0.853000000
C     4.518000000     1.662000000     0.332000000
C     4.301000000     1.889000000    -1.045000000
H     4.279000000     2.931000000    -1.355000000
H     4.969000000     2.545000000     2.218000000
C     2.380000000     4.184000000     1.069000000
H     2.675000000     4.570000000     0.097000000
C     1.110000000     4.510000000     1.504000000
C     0.411000000     5.556000000     0.702000000
H     1.098000000     6.337000000     0.367000000
H    -0.245000000     5.959000000     1.476000000
C    -0.371000000     4.892000000    -0.413000000
C     0.211000000     4.720000000    -1.621000000
H     1.151000000     5.122000000    -1.991000000
C    -1.704000000     4.460000000    -0.193000000
C    -2.462000000     3.901000000    -1.159000000
H    -3.441000000     3.521000000    -0.878000000
C    -1.845000000     3.585000000    -2.339000000
O    -2.478000000     2.707000000    -3.137000000
C    -2.029000000     1.294000000    -3.279000000
C    -3.222000000     0.374000000    -3.195000000
C    -3.114000000    -0.964000000    -3.610000000
H    -2.182000000    -1.392000000    -3.972000000
C    -4.455000000     0.833000000    -2.745000000
H    -4.645000000     1.875000000    -2.498000000
O    -1.245000000     1.250000000    -4.506000000
H    -1.328000000     0.960000000    -2.500000000
C    -0.492000000     3.943000000    -2.564000000
C     0.128000000     3.669000000    -3.947000000
H     0.714000000     4.479000000    -4.386000000
H    -0.669000000     3.647000000    -4.693000000
C     0.855000000     2.353000000    -3.928000000
C     2.240000000     2.302000000    -3.734000000
H     2.778000000     3.203000000    -3.452000000
C     0.130000000     1.211000000    -4.278000000
C     0.765000000    -0.007000000    -4.249000000
H     0.132000000    -0.867000000    -4.449000000
C     2.134000000    -0.065000000    -4.077000000
O     2.688000000    -1.341000000    -4.100000000
C     2.810000000    -1.903000000    -2.767000000
C     2.480000000    -3.419000000    -2.759000000
C     1.590000000    -3.942000000    -3.683000000
H     1.130000000    -3.322000000    -4.448000000
C     2.806000000    -4.207000000    -1.687000000
H     3.224000000    -3.705000000    -0.818000000
O     4.113000000    -1.627000000    -2.198000000
H     2.094000000    -1.483000000    -2.046000000
C     2.938000000     1.037000000    -3.801000000
C     4.354000000     0.992000000    -3.440000000
H     4.863000000     1.930000000    -3.670000000
H     4.894000000     0.168000000    -3.911000000
C     4.267000000     0.744000000    -1.923000000
C     4.246000000    -0.560000000    -1.333000000
C     4.474000000    -0.705000000     0.020000000
H     4.564000000    -1.660000000     0.532000000
C     4.513000000     0.370000000     0.864000000
O     4.450000000     0.116000000     2.152000000
C     3.139000000     0.163000000     2.679000000
H     2.496000000     0.045000000     1.794000000
C     2.820000000    -1.028000000     3.670000000
C     1.722000000    -0.984000000     4.524000000
H     1.238000000    -0.019000000     4.648000000
C     3.484000000    -2.265000000     3.519000000
H     4.227000000    -2.340000000     2.729000000
C     2.996000000    -3.443000000     4.109000000
O     3.549000000    -4.636000000     3.803000000
C     1.916000000    -3.384000000     4.931000000
H     1.519000000    -4.220000000     5.500000000
C     1.335000000    -2.115000000     5.220000000
O     0.216000000    -2.130000000     6.041000000
C    -0.341000000    -0.977000000     6.494000000
C    -1.590000000    -0.523000000     6.136000000
H    -2.168000000    -1.097000000     5.417000000
C     0.464000000    -0.139000000     7.228000000
H     1.462000000    -0.435000000     7.541000000
C     0.064000000     1.117000000     7.612000000
H     0.774000000     1.808000000     8.059000000
C    -1.228000000     1.508000000     7.293000000
H    -1.639000000     2.499000000     7.469000000
C    -2.086000000     0.671000000     6.605000000
O    -3.290000000     1.112000000     6.214000000
C    -3.506000000     1.745000000     4.996000000
C    -4.661000000     1.222000000     4.420000000
H    -5.389000000     0.572000000     4.899000000
C    -4.926000000     1.542000000     3.077000000
O    -5.999000000     0.935000000     2.482000000
C    -6.620000000     1.327000000     1.315000000
C    -6.398000000     0.636000000     0.147000000
H    -5.816000000    -0.281000000     0.209000000
C    -7.234000000     2.633000000     1.284000000
H    -7.323000000     3.296000000     2.141000000
C    -7.689000000     3.187000000     0.099000000
H    -8.174000000     4.153000000    -0.013000000
C    -7.460000000     2.396000000    -1.042000000
H    -7.726000000     2.855000000    -1.991000000
C    -6.816000000     1.193000000    -1.037000000
O    -6.758000000     0.404000000    -2.158000000
C    -5.520000000    -0.054000000    -2.595000000
C    -5.337000000    -1.406000000    -2.990000000
H    -6.121000000    -2.151000000    -2.889000000
C    -4.116000000    -1.857000000    -3.529000000
O    -3.984000000    -3.195000000    -3.923000000
C    -2.866000000    -3.525000000    -4.665000000
C    -1.917000000    -4.396000000    -4.201000000
H    -1.869000000    -4.798000000    -3.192000000
C    -2.863000000    -3.033000000    -5.906000000
H    -3.746000000    -2.535000000    -6.297000000
C    -1.732000000    -3.365000000    -6.684000000
H    -1.703000000    -3.064000000    -7.729000000
C    -0.629000000    -4.155000000    -6.216000000
H     0.110000000    -4.526000000    -6.921000000
C    -0.840000000    -4.762000000    -5.016000000
O     0.133000000    -5.637000000    -4.498000000
C     1.056000000    -5.183000000    -3.549000000
C     1.634000000    -6.082000000    -2.705000000
H     1.288000000    -7.111000000    -2.655000000
C     2.519000000    -5.589000000    -1.691000000
O     2.938000000    -6.312000000    -0.616000000
C     3.785000000    -5.879000000     0.358000000
C     5.117000000    -5.666000000     0.077000000
H     5.578000000    -6.062000000    -0.825000000
C     5.942000000    -5.121000000     1.042000000
H     6.993000000    -4.890000000     0.885000000
C     5.457000000    -4.834000000     2.353000000
H     6.006000000    -4.352000000     3.157000000
C     4.111000000    -5.008000000     2.617000000
C     3.262000000    -5.441000000     1.576000000
H     2.209000000    -5.600000000     1.793000000
C    -0.532000000    -3.434000000     0.160000000
H    -0.616000000    -4.509000000     0.022000000
C    -0.533000000    -2.535000000    -0.872000000
H    -0.604000000    -2.838000000    -1.914000000
C    -0.484000000    -1.176000000    -0.580000000
H    -0.372000000    -0.453000000    -1.403000000
C    -0.573000000    -0.726000000     0.737000000
H    -0.677000000     0.349000000     0.858000000
C    -0.564000000    -1.634000000     1.743000000
H    -0.682000000    -1.292000000     2.768000000
C    -0.567000000    -2.998000000     1.468000000
C    -0.673000000    -3.875000000     2.625000000
O    -1.385000000    -3.532000000     3.560000000
O    -0.328000000    -5.024000000     2.599000000
O    -4.709000000    -4.375000000     7.708000000
H    -4.093000000    -3.839000000     7.209000000
H    -4.168000000    -4.812000000     8.366000000
O    -2.756000000    -3.510000000     5.994000000
H    -2.219000000    -3.434000000     5.206000000
H    -2.447000000    -4.310000000     6.419000000
O     1.603000000    -3.826000000     8.279000000
H     1.756000000    -3.362000000     9.101000000
H     0.939000000    -3.304000000     7.829000000
O    -2.858000000    -6.958000000    -1.016000000
H    -3.317000000    -7.326000000    -0.260000000
H    -3.501000000    -6.382000000    -1.428000000
O    -1.702000000    -6.088000000     7.001000000
H    -2.037000000    -6.973000000     7.145000000
H    -1.100000000    -5.939000000     7.730000000
O    -5.261000000    -1.950000000     5.883000000
H    -6.138000000    -1.994000000     5.502000000
H    -4.671000000    -1.960000000     5.129000000
O    -3.910000000    -3.998000000    -1.139000000
H    -3.893000000    -3.652000000    -2.031000000
H    -4.822000000    -4.257000000    -1.001000000
O    -3.333000000    -1.947000000     0.730000000
H    -3.755000000    -2.403000000     0.002000000
H    -2.405000000    -2.168000000     0.646000000
O    -4.064000000    -6.618000000     1.819000000
H    -3.534000000    -6.592000000     2.616000000
H    -4.949000000    -6.400000000     2.112000000
O     2.803000000    -8.182000000     3.476000000
H     1.872000000    -8.096000000     3.684000000
H     2.861000000    -8.991000000     2.968000000
O    -0.090000000    -7.191000000     1.047000000
H    -0.907000000    -6.965000000     0.602000000
H     0.067000000    -6.460000000     1.645000000
O     1.621000000    -8.950000000    -0.411000000
H     1.674000000    -8.018000000    -0.200000000
H     0.860000000    -9.023000000    -0.986000000
O    -1.605000000    -9.061000000     4.407000000
H    -0.984000000    -8.902000000     5.118000000
H    -2.037000000    -8.217000000     4.273000000
O     0.930000000    -6.339000000     4.374000000
H     1.822000000    -6.067000000     4.160000000
H     0.376000000    -5.820000000     3.791000000
O    -5.748000000    -5.090000000     4.754000000
H    -6.019000000    -4.231000000     4.429000000
H    -5.296000000    -4.903000000     5.576000000
O     0.482000000    -8.432000000     6.132000000
H     0.849000000    -7.706000000     5.627000000
H     1.212000000    -9.041000000     6.242000000
O    -3.982000000    -2.567000000     3.454000000
H    -3.919000000    -2.094000000     2.624000000
H    -3.086000000    -2.850000000     3.636000000
O    -6.596000000    -2.650000000     2.106000000
H    -5.849000000    -2.218000000     2.520000000
H    -6.213000000    -3.385000000     1.627000000
O    -2.354000000    -6.412000000     3.855000000
H    -1.878000000    -5.692000000     3.440000000
H    -2.627000000    -6.061000000     4.702000000
