215
-1479.13596
C    -3.912000000     1.793000000     2.464000000
H    -3.990000000     2.203000000     1.461000000
C    -2.726000000     2.084000000     3.153000000
C    -2.506000000     1.447000000     4.360000000
H    -1.647000000     1.627000000     5.001000000
C    -1.583000000     2.865000000     2.544000000
O    -2.085000000     3.889000000     1.706000000
H    -0.958000000     2.195000000     1.936000000
O    -0.681000000     3.416000000     3.475000000
C     0.640000000     3.174000000     3.179000000
C     1.360000000     2.153000000     3.764000000
H     0.707000000     1.626000000     4.455000000
C     2.637000000     1.832000000     3.404000000
O     3.218000000     0.696000000     3.921000000
C     3.302000000     2.606000000     2.393000000
C     4.770000000     2.262000000     1.947000000
H     5.279000000     3.141000000     1.547000000
C     4.792000000     1.176000000     0.812000000
C     4.854000000     1.715000000    -0.457000000
H     5.084000000     2.762000000    -0.638000000
H     5.463000000     1.992000000     2.747000000
C     2.708000000     3.823000000     1.973000000
H     3.241000000     4.467000000     1.279000000
C     1.335000000     3.995000000     2.261000000
C     0.610000000     5.184000000     1.631000000
H     1.324000000     5.973000000     1.388000000
H    -0.074000000     5.614000000     2.365000000
C    -0.190000000     4.793000000     0.430000000
C     0.333000000     4.972000000    -0.864000000
H     1.358000000     5.310000000    -0.998000000
C    -1.488000000     4.205000000     0.565000000
C    -2.199000000     3.841000000    -0.529000000
H    -3.234000000     3.511000000    -0.508000000
C    -1.677000000     3.925000000    -1.820000000
O    -2.394000000     3.475000000    -2.907000000
C    -1.907000000     2.178000000    -3.406000000
C    -3.117000000     1.262000000    -3.620000000
C    -2.908000000     0.036000000    -4.324000000
H    -2.023000000    -0.032000000    -4.952000000
C    -4.347000000     1.453000000    -2.937000000
H    -4.482000000     2.408000000    -2.436000000
O    -0.981000000     2.299000000    -4.569000000
H    -1.446000000     1.673000000    -2.544000000
C    -0.403000000     4.549000000    -1.977000000
C     0.328000000     4.543000000    -3.291000000
H     1.034000000     5.377000000    -3.314000000
H    -0.316000000     4.795000000    -4.135000000
C     1.035000000     3.216000000    -3.591000000
C     2.356000000     2.952000000    -3.165000000
H     2.897000000     3.728000000    -2.629000000
C     0.354000000     2.163000000    -4.278000000
C     0.966000000     0.942000000    -4.467000000
H     0.385000000     0.112000000    -4.860000000
C     2.304000000     0.741000000    -4.097000000
O     2.857000000    -0.526000000    -4.148000000
C     2.828000000    -1.296000000    -2.894000000
C     2.313000000    -2.661000000    -3.115000000
C     1.699000000    -3.080000000    -4.348000000
H     1.448000000    -2.437000000    -5.188000000
C     2.295000000    -3.542000000    -2.054000000
H     2.758000000    -3.288000000    -1.104000000
O     4.078000000    -1.349000000    -2.287000000
H     2.115000000    -0.848000000    -2.186000000
C     2.997000000     1.781000000    -3.425000000
C     4.490000000     1.568000000    -2.923000000
H     5.046000000     2.502000000    -3.024000000
H     4.915000000     0.825000000    -3.601000000
C     4.605000000     0.892000000    -1.534000000
C     4.426000000    -0.513000000    -1.345000000
C     4.504000000    -1.104000000    -0.088000000
H     4.413000000    -2.186000000    -0.030000000
C     4.626000000    -0.199000000     1.048000000
O     4.489000000    -0.754000000     2.283000000
C     3.274000000    -0.482000000     3.083000000
H     2.478000000    -0.413000000     2.327000000
C     2.916000000    -1.718000000     3.897000000
C     1.809000000    -1.612000000     4.683000000
H     1.420000000    -0.632000000     4.947000000
C     3.320000000    -3.006000000     3.535000000
H     4.096000000    -3.073000000     2.777000000
C     2.785000000    -4.160000000     4.060000000
O     3.057000000    -5.397000000     3.475000000
C     1.643000000    -4.041000000     4.867000000
H     0.965000000    -4.852000000     5.118000000
C     1.247000000    -2.762000000     5.232000000
O     0.139000000    -2.749000000     6.003000000
C    -0.389000000    -1.602000000     6.483000000
C    -1.592000000    -1.066000000     5.989000000
H    -2.125000000    -1.579000000     5.192000000
C     0.114000000    -1.073000000     7.658000000
H     0.980000000    -1.511000000     8.148000000
C    -0.577000000    -0.130000000     8.425000000
H    -0.261000000     0.171000000     9.420000000
C    -1.720000000     0.421000000     7.831000000
H    -2.313000000     1.147000000     8.382000000
C    -2.239000000    -0.074000000     6.698000000
O    -3.436000000     0.418000000     6.240000000
C    -3.528000000     0.733000000     4.913000000
C    -4.755000000     0.523000000     4.315000000
H    -5.562000000     0.082000000     4.895000000
C    -4.935000000     1.022000000     3.002000000
O    -6.174000000     0.969000000     2.388000000
C    -6.517000000     1.447000000     1.115000000
C    -6.397000000     0.622000000     0.012000000
H    -5.939000000    -0.363000000     0.065000000
C    -7.197000000     2.658000000     1.024000000
H    -7.497000000     3.202000000     1.916000000
C    -7.522000000     3.172000000    -0.223000000
H    -8.041000000     4.126000000    -0.271000000
C    -7.310000000     2.381000000    -1.379000000
H    -7.654000000     2.640000000    -2.377000000
C    -6.680000000     1.146000000    -1.249000000
O    -6.483000000     0.426000000    -2.326000000
C    -5.285000000     0.402000000    -2.962000000
C    -5.143000000    -0.752000000    -3.711000000
H    -5.864000000    -1.565000000    -3.685000000
C    -3.941000000    -0.953000000    -4.384000000
O    -3.792000000    -2.174000000    -4.983000000
C    -2.644000000    -2.544000000    -5.698000000
C    -1.698000000    -3.449000000    -5.216000000
H    -1.824000000    -3.918000000    -4.244000000
C    -2.415000000    -1.975000000    -6.951000000
H    -3.148000000    -1.282000000    -7.355000000
C    -1.341000000    -2.348000000    -7.768000000
H    -1.205000000    -2.069000000    -8.810000000
C    -0.386000000    -3.233000000    -7.234000000
H     0.435000000    -3.561000000    -7.867000000
C    -0.580000000    -3.775000000    -5.981000000
O     0.385000000    -4.698000000    -5.548000000
C     1.134000000    -4.348000000    -4.454000000
C     1.163000000    -5.191000000    -3.326000000
H     0.719000000    -6.181000000    -3.395000000
C     1.805000000    -4.824000000    -2.159000000
O     1.807000000    -5.752000000    -1.178000000
C     2.842000000    -5.845000000    -0.235000000
C     4.174000000    -6.108000000    -0.507000000
H     4.476000000    -6.377000000    -1.516000000
C     5.094000000    -6.034000000     0.505000000
H     6.136000000    -6.232000000     0.270000000
C     4.742000000    -5.842000000     1.881000000
H     5.393000000    -5.947000000     2.745000000
C     3.390000000    -5.511000000     2.129000000
C     2.431000000    -5.536000000     1.128000000
H     1.414000000    -5.265000000     1.402000000
C    -0.689000000    -2.447000000    -0.576000000
H    -0.704000000    -3.257000000    -1.301000000
C    -0.318000000    -1.137000000    -0.942000000
H    -0.106000000    -0.828000000    -1.963000000
C    -0.078000000    -0.166000000     0.000000000
H     0.214000000     0.824000000    -0.325000000
C    -0.112000000    -0.522000000     1.335000000
H     0.099000000     0.223000000     2.099000000
C    -0.392000000    -1.848000000     1.685000000
H    -0.354000000    -2.157000000     2.726000000
C    -0.692000000    -2.793000000     0.776000000
C    -1.129000000    -4.177000000     1.155000000
O    -1.461000000    -4.427000000     2.300000000
O    -1.341000000    -5.041000000     0.346000000
O    -1.610000000    -5.401000000     4.721000000
H    -1.520000000    -4.742000000     4.033000000
H    -2.496000000    -5.745000000     4.609000000
O    -0.449000000    -5.609000000     7.078000000
H     0.445000000    -5.950000000     7.091000000
H    -0.713000000    -5.664000000     6.159000000
O    -3.032000000    -4.865000000    -1.656000000
H    -2.452000000    -5.052000000    -0.918000000
H    -3.797000000    -4.447000000    -1.260000000
O    -5.843000000    -3.717000000     4.275000000
H    -5.870000000    -4.597000000     3.901000000
H    -4.974000000    -3.386000000     4.047000000
O    -5.200000000    -3.363000000    -0.238000000
H    -6.120000000    -3.588000000    -0.377000000
H    -4.933000000    -3.899000000     0.508000000
O    -3.633000000    -1.068000000     1.116000000
H    -4.354000000    -1.367000000     0.562000000
H    -2.957000000    -0.788000000     0.499000000
O    -5.038000000    -6.530000000    -0.692000000
H    -4.406000000    -6.147000000    -1.301000000
H    -4.697000000    -6.311000000     0.176000000
O    -0.912000000   -10.206000000    -0.167000000
H    -0.265000000   -10.554000000    -0.780000000
H    -0.824000000    -9.255000000    -0.239000000
O    -0.716000000    -7.639000000    -0.557000000
H    -0.729000000    -6.777000000    -0.140000000
H    -1.107000000    -7.493000000    -1.419000000
O     2.279000000    -8.719000000    -1.199000000
H     2.419000000    -8.207000000    -1.996000000
H     1.725000000    -8.163000000    -0.652000000
O    -3.990000000    -6.839000000     4.281000000
H    -4.708000000    -6.641000000     4.882000000
H    -4.150000000    -7.742000000     4.005000000
O    -1.924000000    -6.787000000    -3.178000000
H    -2.412000000    -6.016000000    -2.888000000
H    -2.285000000    -6.987000000    -4.042000000
O     0.590000000    -9.078000000     1.819000000
H     0.024000000    -8.308000000     1.876000000
H     0.103000000    -9.692000000     1.269000000
O    -4.391000000    -5.503000000     1.907000000
H    -3.820000000    -4.752000000     2.068000000
H    -4.149000000    -6.136000000     2.583000000
O    -3.851000000    -8.724000000     1.935000000
H    -2.933000000    -8.508000000     2.094000000
H    -3.879000000    -8.991000000     1.016000000
O     3.240000000    -9.406000000     1.410000000
H     3.347000000    -8.932000000     0.586000000
H     2.339000000    -9.226000000     1.675000000
O     1.851000000    -9.045000000     4.441000000
H     1.411000000    -9.171000000     3.601000000
H     2.290000000    -8.199000000     4.358000000
O    -3.546000000    -3.091000000     3.099000000
H    -3.495000000    -2.316000000     2.541000000
H    -2.760000000    -3.594000000     2.885000000
O    -1.401000000    -7.277000000     2.387000000
H    -1.352000000    -6.546000000     1.771000000
H    -1.319000000    -6.870000000     3.250000000
