215
-1464.78822
C    -2.592000000     2.688000000     2.693000000
H    -2.737000000     3.151000000     1.720000000
C    -1.370000000     2.593000000     3.277000000
C    -1.248000000     1.877000000     4.431000000
H    -0.287000000     1.801000000     4.933000000
C    -0.237000000     3.223000000     2.549000000
O    -0.534000000     4.514000000     2.038000000
H     0.011000000     2.620000000     1.663000000
O     0.904000000     3.308000000     3.448000000
C     2.128000000     2.823000000     3.079000000
C     2.648000000     1.612000000     3.559000000
H     2.025000000     1.094000000     4.283000000
C     3.740000000     1.055000000     2.987000000
O     4.026000000    -0.225000000     3.306000000
C     4.310000000     1.703000000     1.927000000
C     5.429000000     1.052000000     1.087000000
H     6.125000000     1.772000000     0.652000000
C     4.779000000     0.210000000    -0.044000000
C     4.756000000     0.691000000    -1.329000000
H     5.091000000     1.694000000    -1.583000000
H     6.121000000     0.454000000     1.684000000
C     3.898000000     2.932000000     1.451000000
H     4.303000000     3.343000000     0.530000000
C     2.771000000     3.501000000     2.054000000
C     2.240000000     4.816000000     1.503000000
H     3.087000000     5.362000000     1.081000000
H     1.854000000     5.449000000     2.304000000
C     1.117000000     4.774000000     0.424000000
C     1.478000000     4.846000000    -0.912000000
H     2.511000000     4.970000000    -1.226000000
C    -0.220000000     4.735000000     0.726000000
C    -1.217000000     4.633000000    -0.227000000
H    -2.253000000     4.514000000     0.079000000
C    -0.865000000     4.414000000    -1.573000000
O    -1.861000000     4.030000000    -2.406000000
C    -1.948000000     2.654000000    -2.846000000
C    -3.357000000     2.194000000    -3.077000000
C    -3.687000000     1.273000000    -4.063000000
H    -2.869000000     0.921000000    -4.687000000
C    -4.396000000     2.794000000    -2.335000000
H    -4.143000000     3.533000000    -1.578000000
O    -1.268000000     2.557000000    -4.163000000
H    -1.453000000     1.986000000    -2.126000000
C     0.510000000     4.567000000    -1.914000000
C     0.981000000     4.374000000    -3.387000000
H     1.867000000     4.975000000    -3.603000000
H     0.165000000     4.882000000    -3.906000000
C     1.122000000     2.946000000    -3.717000000
C     2.447000000     2.428000000    -3.642000000
H     3.304000000     3.047000000    -3.388000000
C     0.011000000     2.070000000    -4.059000000
C     0.309000000     0.757000000    -4.317000000
H    -0.498000000     0.103000000    -4.638000000
C     1.605000000     0.228000000    -4.214000000
O     1.618000000    -1.122000000    -4.470000000
C     1.719000000    -1.880000000    -3.261000000
C     0.938000000    -3.170000000    -3.188000000
C    -0.334000000    -3.009000000    -3.616000000
H    -0.651000000    -2.054000000    -4.026000000
C     1.381000000    -4.345000000    -2.522000000
H     2.394000000    -4.499000000    -2.159000000
O     3.088000000    -2.144000000    -2.964000000
H     1.444000000    -1.205000000    -2.437000000
C     2.690000000     1.064000000    -3.900000000
C     4.081000000     0.554000000    -3.684000000
H     4.831000000     1.343000000    -3.762000000
H     4.310000000    -0.219000000    -4.421000000
C     4.228000000    -0.094000000    -2.312000000
C     3.720000000    -1.353000000    -2.052000000
C     3.851000000    -1.869000000    -0.795000000
H     3.580000000    -2.892000000    -0.546000000
C     4.316000000    -1.087000000     0.254000000
O     4.379000000    -1.657000000     1.510000000
C     3.496000000    -1.263000000     2.486000000
H     2.559000000    -0.928000000     2.018000000
C     2.988000000    -2.417000000     3.307000000
C     2.337000000    -2.280000000     4.512000000
H     2.392000000    -1.291000000     4.958000000
C     2.918000000    -3.746000000     2.703000000
H     3.537000000    -4.007000000     1.848000000
C     2.248000000    -4.819000000     3.376000000
O     2.293000000    -6.111000000     2.806000000
C     1.678000000    -4.537000000     4.632000000
H     1.252000000    -5.430000000     5.083000000
C     1.825000000    -3.332000000     5.256000000
O     1.152000000    -3.102000000     6.472000000
C     0.650000000    -1.854000000     6.915000000
C    -0.428000000    -1.242000000     6.153000000
H    -0.779000000    -1.840000000     5.316000000
C     1.127000000    -1.304000000     8.075000000
H     1.900000000    -1.857000000     8.602000000
C     0.476000000    -0.133000000     8.562000000
H     0.779000000     0.391000000     9.465000000
C    -0.576000000     0.488000000     7.891000000
H    -1.167000000     1.271000000     8.360000000
C    -1.088000000    -0.094000000     6.663000000
O    -2.202000000     0.448000000     6.108000000
C    -2.326000000     1.171000000     4.976000000
C    -3.515000000     1.210000000     4.380000000
H    -4.340000000     0.640000000     4.800000000
C    -3.694000000     2.007000000     3.258000000
O    -4.901000000     1.855000000     2.560000000
C    -5.462000000     2.738000000     1.673000000
C    -5.849000000     2.344000000     0.411000000
H    -5.455000000     1.386000000     0.080000000
C    -5.835000000     4.001000000     2.083000000
H    -5.666000000     4.335000000     3.104000000
C    -6.314000000     4.932000000     1.217000000
H    -6.401000000     5.972000000     1.521000000
C    -6.638000000     4.561000000    -0.092000000
H    -7.114000000     5.239000000    -0.795000000
C    -6.496000000     3.229000000    -0.458000000
O    -6.767000000     2.777000000    -1.718000000
C    -5.716000000     2.375000000    -2.493000000
C    -5.961000000     1.394000000    -3.446000000
H    -6.996000000     1.146000000    -3.669000000
C    -4.969000000     0.839000000    -4.205000000
O    -5.297000000    -0.040000000    -5.328000000
C    -4.593000000    -1.221000000    -5.452000000
C    -4.101000000    -2.033000000    -4.410000000
H    -4.243000000    -1.808000000    -3.356000000
C    -4.393000000    -1.604000000    -6.745000000
H    -4.920000000    -1.019000000    -7.495000000
C    -3.513000000    -2.642000000    -7.132000000
H    -3.397000000    -2.939000000    -8.171000000
C    -2.845000000    -3.281000000    -6.116000000
H    -2.138000000    -4.072000000    -6.353000000
C    -3.180000000    -3.039000000    -4.763000000
O    -2.603000000    -3.858000000    -3.730000000
C    -1.259000000    -4.045000000    -3.473000000
C    -0.842000000    -5.212000000    -2.823000000
H    -1.578000000    -6.005000000    -2.930000000
C     0.402000000    -5.344000000    -2.301000000
O     0.725000000    -6.537000000    -1.785000000
C     1.703000000    -6.759000000    -0.803000000
C     2.892000000    -7.422000000    -1.075000000
H     3.139000000    -7.575000000    -2.122000000
C     3.809000000    -7.717000000    -0.032000000
H     4.705000000    -8.277000000    -0.290000000
C     3.570000000    -7.306000000     1.242000000
H     4.249000000    -7.653000000     2.016000000
C     2.483000000    -6.400000000     1.487000000
C     1.479000000    -6.296000000     0.466000000
H     0.544000000    -5.755000000     0.587000000
C    -0.712000000    -2.026000000     0.626000000
H    -0.346000000    -3.026000000     0.841000000
C     0.174000000    -1.032000000     0.087000000
H     1.231000000    -1.174000000    -0.123000000
C    -0.302000000     0.308000000    -0.022000000
H     0.402000000     1.051000000    -0.379000000
C    -1.640000000     0.606000000     0.262000000
H    -1.928000000     1.636000000     0.068000000
C    -2.471000000    -0.400000000     0.690000000
H    -3.482000000    -0.047000000     0.877000000
C    -2.008000000    -1.709000000     0.980000000
C    -2.826000000    -2.802000000     1.603000000
O    -3.981000000    -2.484000000     2.004000000
O    -2.350000000    -3.912000000     1.928000000
O    -2.691000000    -3.208000000     7.807000000
H    -3.408000000    -3.842000000     7.789000000
H    -2.395000000    -3.156000000     6.899000000
O    -0.837000000    -6.247000000     6.342000000
H    -1.372000000    -6.374000000     7.126000000
H    -1.263000000    -5.528000000     5.876000000
O    -7.631000000     0.551000000     3.588000000
H    -7.379000000     0.563000000     4.511000000
H    -6.808000000     0.664000000     3.113000000
O    -3.733000000    -6.625000000     5.000000000
H    -2.958000000    -7.121000000     4.738000000
H    -3.829000000    -5.955000000     4.324000000
O    -7.821000000    -2.081000000     4.736000000
H    -8.697000000    -2.352000000     5.010000000
H    -7.974000000    -1.458000000     4.025000000
O    -4.944000000    -4.378000000    -2.514000000
H    -5.244000000    -5.164000000    -2.057000000
H    -3.997000000    -4.367000000    -2.372000000
O    -8.424000000    -3.732000000     1.526000000
H    -9.202000000    -3.189000000     1.655000000
H    -7.845000000    -3.197000000     0.983000000
O    -4.548000000    -5.090000000     7.108000000
H    -4.247000000    -5.626000000     6.374000000
H    -5.440000000    -4.839000000     6.871000000
O    -2.620000000    -8.890000000     0.445000000
H    -2.959000000    -8.439000000     1.219000000
H    -2.647000000    -9.818000000     0.678000000
O    -4.734000000    -2.542000000     4.733000000
H    -4.359000000    -2.442000000     3.858000000
H    -5.660000000    -2.729000000     4.577000000
O    -8.426000000    -0.066000000     0.335000000
H    -8.651000000     0.217000000     1.221000000
H    -7.524000000    -0.379000000     0.406000000
O    -4.797000000    -4.944000000     3.097000000
H    -4.183000000    -4.391000000     2.615000000
H    -5.485000000    -4.344000000     3.385000000
O    -0.831000000    -8.746000000     3.382000000
H    -0.103000000    -8.572000000     3.977000000
H    -0.921000000    -7.941000000     2.871000000
O    -2.137000000    -4.038000000     4.587000000
H    -2.022000000    -4.015000000     3.637000000
H    -3.044000000    -3.766000000     4.725000000
O    -6.931000000    -3.104000000    -1.071000000
H    -7.671000000    -3.252000000    -1.660000000
H    -6.159000000    -3.300000000    -1.602000000
O    -1.845000000    -6.394000000     2.090000000
H    -2.066000000    -5.472000000     1.954000000
H    -1.984000000    -6.802000000     1.235000000
O    -4.647000000    -6.558000000    -0.864000000
H    -4.372000000    -6.386000000     0.037000000
H    -4.939000000    -7.469000000    -0.855000000
O    -4.890000000    -7.734000000     2.416000000
H    -4.857000000    -7.998000000     3.336000000
H    -5.129000000    -6.807000000     2.441000000
O    -5.914000000    -1.321000000     0.814000000
H    -5.130000000    -1.703000000     1.208000000
H    -6.189000000    -1.961000000     0.158000000
