215
-1444.38573
C    -3.851000000     2.022000000     2.769000000
H    -4.059000000     2.799000000     2.038000000
C    -2.610000000     2.099000000     3.292000000
C    -2.261000000     1.150000000     4.285000000
H    -1.224000000     0.976000000     4.561000000
C    -1.462000000     2.810000000     2.449000000
O    -1.946000000     4.078000000     1.926000000
H    -1.103000000     2.108000000     1.682000000
O    -0.434000000     3.224000000     3.318000000
C     0.907000000     3.176000000     2.899000000
C     1.667000000     2.168000000     3.439000000
H     1.111000000     1.383000000     3.945000000
C     2.992000000     1.963000000     3.097000000
O     3.647000000     0.869000000     3.550000000
C     3.601000000     2.762000000     2.135000000
C     4.901000000     2.387000000     1.421000000
H     5.463000000     3.253000000     1.067000000
C     4.649000000     1.380000000     0.293000000
C     4.590000000     1.838000000    -1.056000000
H     4.674000000     2.914000000    -1.186000000
H     5.656000000     1.949000000     2.077000000
C     2.865000000     3.803000000     1.665000000
H     3.334000000     4.423000000     0.905000000
C     1.566000000     4.105000000     2.086000000
C     0.777000000     5.335000000     1.519000000
H     1.520000000     6.015000000     1.098000000
H     0.338000000     5.954000000     2.304000000
C    -0.150000000     4.926000000     0.404000000
C     0.320000000     5.033000000    -0.902000000
H     1.333000000     5.337000000    -1.155000000
C    -1.457000000     4.380000000     0.628000000
C    -2.168000000     3.778000000    -0.396000000
H    -3.159000000     3.365000000    -0.225000000
C    -1.711000000     3.847000000    -1.632000000
O    -2.488000000     3.191000000    -2.571000000
C    -2.177000000     1.887000000    -3.127000000
C    -3.457000000     1.030000000    -3.319000000
C    -3.375000000    -0.162000000    -4.077000000
H    -2.477000000    -0.272000000    -4.680000000
C    -4.587000000     1.179000000    -2.460000000
H    -4.622000000     1.816000000    -1.580000000
O    -1.487000000     2.080000000    -4.421000000
H    -1.548000000     1.339000000    -2.409000000
C    -0.468000000     4.401000000    -1.920000000
C     0.134000000     4.389000000    -3.313000000
H     0.857000000     5.194000000    -3.164000000
H    -0.518000000     4.793000000    -4.090000000
C     0.655000000     3.055000000    -3.750000000
C     1.972000000     2.765000000    -3.487000000
H     2.538000000     3.551000000    -2.993000000
C    -0.105000000     2.005000000    -4.358000000
C     0.481000000     0.787000000    -4.603000000
H    -0.041000000    -0.090000000    -4.978000000
C     1.812000000     0.576000000    -4.370000000
O     2.239000000    -0.720000000    -4.424000000
C     2.445000000    -1.454000000    -3.103000000
C     1.914000000    -2.874000000    -2.998000000
C     0.753000000    -3.186000000    -3.717000000
H     0.326000000    -2.430000000    -4.371000000
C     2.440000000    -3.881000000    -2.198000000
H     3.287000000    -3.689000000    -1.545000000
O     3.797000000    -1.388000000    -2.704000000
H     1.935000000    -0.779000000    -2.399000000
C     2.587000000     1.616000000    -3.789000000
C     4.041000000     1.379000000    -3.485000000
H     4.631000000     2.276000000    -3.686000000
H     4.552000000     0.656000000    -4.125000000
C     4.206000000     0.969000000    -2.057000000
C     4.108000000    -0.434000000    -1.769000000
C     4.284000000    -0.916000000    -0.454000000
H     4.162000000    -1.981000000    -0.278000000
C     4.591000000     0.025000000     0.566000000
O     4.603000000    -0.390000000     1.892000000
C     3.448000000    -0.282000000     2.737000000
H     2.569000000    -0.160000000     2.087000000
C     3.186000000    -1.552000000     3.533000000
C     2.381000000    -1.498000000     4.668000000
H     1.873000000    -0.598000000     5.004000000
C     3.625000000    -2.787000000     3.024000000
H     4.241000000    -2.878000000     2.132000000
C     3.361000000    -3.950000000     3.795000000
O     4.036000000    -5.097000000     3.376000000
C     2.712000000    -3.880000000     5.012000000
H     2.679000000    -4.780000000     5.621000000
C     2.185000000    -2.669000000     5.417000000
O     1.371000000    -2.586000000     6.585000000
C     0.392000000    -1.682000000     6.916000000
C    -0.854000000    -1.651000000     6.265000000
H    -1.012000000    -2.354000000     5.450000000
C     0.681000000    -0.628000000     7.770000000
H     1.586000000    -0.762000000     8.357000000
C    -0.266000000     0.363000000     8.020000000
H    -0.058000000     1.164000000     8.725000000
C    -1.485000000     0.389000000     7.392000000
H    -2.243000000     1.157000000     7.520000000
C    -1.746000000    -0.626000000     6.480000000
O    -2.935000000    -0.614000000     5.811000000
C    -3.253000000     0.301000000     4.805000000
C    -4.577000000     0.423000000     4.376000000
H    -5.392000000    -0.142000000     4.821000000
C    -4.842000000     1.291000000     3.329000000
O    -6.112000000     1.560000000     2.986000000
C    -6.575000000     1.918000000     1.676000000
C    -6.378000000     0.968000000     0.648000000
H    -5.748000000     0.105000000     0.847000000
C    -7.219000000     3.148000000     1.477000000
H    -7.190000000     3.724000000     2.398000000
C    -7.663000000     3.442000000     0.181000000
H    -8.271000000     4.321000000    -0.020000000
C    -7.534000000     2.538000000    -0.812000000
H    -7.972000000     2.854000000    -1.755000000
C    -6.861000000     1.329000000    -0.600000000
O    -6.769000000     0.433000000    -1.615000000
C    -5.633000000     0.252000000    -2.467000000
C    -5.581000000    -0.762000000    -3.429000000
H    -6.519000000    -1.277000000    -3.620000000
C    -4.485000000    -0.999000000    -4.256000000
O    -4.643000000    -1.836000000    -5.321000000
C    -3.414000000    -2.403000000    -5.785000000
C    -2.775000000    -3.304000000    -4.924000000
H    -3.240000000    -3.511000000    -3.964000000
C    -2.953000000    -2.257000000    -7.130000000
H    -3.548000000    -1.717000000    -7.862000000
C    -1.742000000    -2.784000000    -7.477000000
H    -1.212000000    -2.572000000    -8.402000000
C    -1.081000000    -3.584000000    -6.597000000
H    -0.092000000    -3.925000000    -6.891000000
C    -1.564000000    -3.853000000    -5.285000000
O    -0.946000000    -4.751000000    -4.444000000
C     0.168000000    -4.482000000    -3.648000000
C     0.741000000    -5.491000000    -2.836000000
H     0.289000000    -6.479000000    -2.839000000
C     1.837000000    -5.129000000    -2.044000000
O     2.228000000    -6.056000000    -1.051000000
C     3.342000000    -5.823000000    -0.212000000
C     4.633000000    -5.813000000    -0.690000000
H     4.864000000    -5.903000000    -1.749000000
C     5.740000000    -5.786000000     0.143000000
H     6.773000000    -5.938000000    -0.160000000
C     5.501000000    -5.615000000     1.512000000
H     6.332000000    -5.524000000     2.206000000
C     4.197000000    -5.496000000     2.029000000
C     3.081000000    -5.681000000     1.198000000
H     2.049000000    -5.737000000     1.536000000
C    -0.761000000    -2.137000000     1.911000000
H    -0.440000000    -2.849000000     2.666000000
C     0.109000000    -1.324000000     1.183000000
H     1.190000000    -1.428000000     1.238000000
C    -0.395000000    -0.314000000     0.388000000
H     0.339000000     0.301000000    -0.093000000
C    -1.737000000    -0.017000000     0.362000000
H    -2.128000000     0.760000000    -0.291000000
C    -2.634000000    -0.875000000     1.048000000
H    -3.709000000    -0.713000000     1.061000000
C    -2.142000000    -1.913000000     1.807000000
C    -3.132000000    -2.798000000     2.520000000
O    -4.361000000    -2.652000000     2.335000000
O    -2.747000000    -3.604000000     3.287000000
O    -5.255000000    -2.035000000     6.628000000
H    -5.668000000    -1.484000000     7.292000000
H    -4.384000000    -1.655000000     6.509000000
O    -8.455000000     0.408000000     4.072000000
H    -7.520000000     0.523000000     3.902000000
H    -8.644000000    -0.483000000     3.778000000
O    -5.200000000    -4.458000000     8.189000000
H    -4.265000000    -4.539000000     8.002000000
H    -5.483000000    -3.704000000     7.673000000
O    -4.671000000    -4.931000000    -0.479000000
H    -4.654000000    -5.805000000    -0.087000000
H    -3.753000000    -4.659000000    -0.495000000
O    -5.162000000    -8.255000000     3.662000000
H    -4.244000000    -8.347000000     3.919000000
H    -5.355000000    -7.327000000     3.790000000
O    -2.018000000    -4.996000000    -0.574000000
H    -2.058000000    -5.466000000    -1.407000000
H    -1.597000000    -4.163000000    -0.788000000
O    -4.705000000    -5.305000000     3.881000000
H    -5.506000000    -4.813000000     4.060000000
H    -4.071000000    -4.641000000     3.611000000
O    -1.963000000    -5.922000000     1.977000000
H    -2.004000000    -5.605000000     1.074000000
H    -2.143000000    -5.148000000     2.510000000
O    -0.074000000    -8.447000000     1.739000000
H    -0.670000000    -9.126000000     2.053000000
H    -0.535000000    -7.626000000     1.909000000
O    -1.472000000    -4.926000000     5.215000000
H    -1.793000000    -4.435000000     4.459000000
H    -1.364000000    -4.267000000     5.901000000
O    -8.863000000    -1.823000000    -0.291000000
H    -9.353000000    -2.646000000    -0.318000000
H    -7.949000000    -2.092000000    -0.199000000
O    -6.420000000    -2.832000000     4.333000000
H    -5.762000000    -2.553000000     3.696000000
H    -5.953000000    -2.845000000     5.169000000
O    -3.646000000    -8.326000000     1.168000000
H    -3.660000000    -9.243000000     1.441000000
H    -3.309000000    -7.854000000     1.929000000
O    -2.591000000    -7.813000000     4.190000000
H    -2.803000000    -7.694000000     5.116000000
H    -2.357000000    -6.937000000     3.883000000
O    -3.626000000    -6.530000000     6.670000000
H    -3.302000000    -5.911000000     7.325000000
H    -4.021000000    -5.978000000     5.995000000
O    -0.267000000    -6.935000000     6.724000000
H    -0.542000000    -6.160000000     6.235000000
H     0.577000000    -6.691000000     7.104000000
O    -6.429000000    -2.877000000     0.591000000
H    -6.362000000    -3.830000000     0.541000000
H    -5.610000000    -2.600000000     1.002000000
O    -6.967000000    -5.722000000    -2.015000000
H    -6.143000000    -5.374000000    -1.674000000
H    -6.732000000    -6.573000000    -2.385000000
O    -8.881000000    -2.039000000     2.855000000
H    -8.732000000    -1.729000000     1.962000000
H    -8.228000000    -2.727000000     2.982000000
