215
-1424.25367
C    -3.478000000     1.741000000     2.241000000
H    -3.507000000     1.952000000     1.175000000
C    -2.328000000     2.163000000     2.991000000
C    -2.163000000     1.682000000     4.306000000
H    -1.385000000     2.012000000     4.990000000
C    -1.275000000     3.007000000     2.241000000
O    -1.942000000     4.145000000     1.592000000
H    -0.842000000     2.348000000     1.474000000
O    -0.407000000     3.497000000     3.230000000
C     0.946000000     3.446000000     3.004000000
C     1.712000000     2.469000000     3.672000000
H     1.211000000     1.891000000     4.444000000
C     2.940000000     2.121000000     3.095000000
O     3.479000000     0.970000000     3.539000000
C     3.545000000     2.842000000     2.025000000
C     4.826000000     2.449000000     1.405000000
H     5.400000000     3.284000000     0.997000000
C     4.610000000     1.409000000     0.323000000
C     4.518000000     1.816000000    -0.965000000
H     4.386000000     2.873000000    -1.183000000
H     5.470000000     2.039000000     2.186000000
C     2.803000000     3.909000000     1.557000000
H     3.344000000     4.542000000     0.859000000
C     1.477000000     4.199000000     1.972000000
C     0.727000000     5.347000000     1.293000000
H     1.427000000     6.118000000     0.963000000
H     0.262000000     6.028000000     2.010000000
C    -0.195000000     4.893000000     0.112000000
C     0.238000000     5.094000000    -1.204000000
H     1.166000000     5.609000000    -1.441000000
C    -1.466000000     4.320000000     0.350000000
C    -2.194000000     3.793000000    -0.702000000
H    -3.152000000     3.335000000    -0.470000000
C    -1.666000000     3.736000000    -1.973000000
O    -2.441000000     3.168000000    -2.906000000
C    -2.240000000     1.785000000    -3.336000000
C    -3.456000000     0.910000000    -3.575000000
C    -3.444000000    -0.151000000    -4.505000000
H    -2.528000000    -0.324000000    -5.065000000
C    -4.685000000     1.190000000    -2.959000000
H    -4.699000000     2.060000000    -2.308000000
O    -1.298000000     1.903000000    -4.450000000
H    -1.620000000     1.365000000    -2.530000000
C    -0.478000000     4.412000000    -2.233000000
C     0.077000000     4.270000000    -3.571000000
H     0.803000000     5.058000000    -3.783000000
H    -0.733000000     4.457000000    -4.279000000
C     0.742000000     2.919000000    -3.763000000
C     2.177000000     2.832000000    -3.597000000
H     2.736000000     3.704000000    -3.268000000
C     0.014000000     1.863000000    -4.189000000
C     0.642000000     0.662000000    -4.452000000
H     0.033000000    -0.189000000    -4.745000000
C     2.011000000     0.483000000    -4.230000000
O     2.371000000    -0.856000000    -4.242000000
C     2.458000000    -1.474000000    -2.886000000
C     1.900000000    -2.955000000    -2.838000000
C     0.858000000    -3.301000000    -3.694000000
H     0.356000000    -2.612000000    -4.369000000
C     2.387000000    -3.896000000    -1.915000000
H     3.210000000    -3.779000000    -1.215000000
O     3.833000000    -1.510000000    -2.510000000
H     1.999000000    -0.771000000    -2.175000000
C     2.787000000     1.565000000    -3.721000000
C     4.270000000     1.413000000    -3.473000000
H     4.824000000     2.352000000    -3.538000000
H     4.826000000     0.843000000    -4.220000000
C     4.346000000     0.875000000    -2.013000000
C     4.412000000    -0.511000000    -1.657000000
C     4.571000000    -0.913000000    -0.305000000
H     4.547000000    -1.973000000    -0.064000000
C     4.548000000     0.048000000     0.672000000
O     4.569000000    -0.438000000     1.979000000
C     3.397000000    -0.220000000     2.759000000
H     2.475000000    -0.211000000     2.159000000
C     3.085000000    -1.452000000     3.729000000
C     2.500000000    -1.224000000     4.967000000
H     2.201000000    -0.227000000     5.280000000
C     3.391000000    -2.795000000     3.309000000
H     3.849000000    -2.905000000     2.330000000
C     2.969000000    -3.866000000     4.122000000
O     3.165000000    -5.175000000     3.740000000
C     2.249000000    -3.645000000     5.264000000
H     1.778000000    -4.519000000     5.708000000
C     2.025000000    -2.330000000     5.680000000
O     1.187000000    -2.193000000     6.731000000
C     0.323000000    -1.141000000     7.039000000
C    -0.917000000    -0.966000000     6.380000000
H    -1.157000000    -1.621000000     5.547000000
C     0.767000000    -0.174000000     7.976000000
H     1.737000000    -0.251000000     8.461000000
C    -0.178000000     0.772000000     8.432000000
H     0.058000000     1.364000000     9.312000000
C    -1.465000000     0.893000000     7.759000000
H    -2.126000000     1.674000000     8.126000000
C    -1.733000000     0.121000000     6.652000000
O    -2.939000000     0.250000000     6.095000000
C    -3.059000000     0.830000000     4.870000000
C    -4.273000000     0.528000000     4.148000000
H    -4.987000000    -0.200000000     4.524000000
C    -4.518000000     1.072000000     2.876000000
O    -5.599000000     0.562000000     2.210000000
C    -6.148000000     1.175000000     1.122000000
C    -6.342000000     0.549000000    -0.102000000
H    -5.822000000    -0.405000000    -0.106000000
C    -6.944000000     2.339000000     1.438000000
H    -6.957000000     2.807000000     2.419000000
C    -7.716000000     2.894000000     0.409000000
H    -8.331000000     3.720000000     0.758000000
C    -7.679000000     2.382000000    -0.925000000
H    -8.295000000     2.916000000    -1.643000000
C    -6.981000000     1.220000000    -1.200000000
O    -6.984000000     0.655000000    -2.459000000
C    -5.813000000     0.447000000    -3.191000000
C    -5.687000000    -0.642000000    -3.978000000
H    -6.691000000    -1.021000000    -4.150000000
C    -4.545000000    -1.021000000    -4.682000000
O    -4.442000000    -2.145000000    -5.522000000
C    -3.196000000    -2.684000000    -5.793000000
C    -2.607000000    -3.595000000    -4.862000000
H    -3.059000000    -3.892000000    -3.919000000
C    -2.547000000    -2.307000000    -6.961000000
H    -3.065000000    -1.659000000    -7.664000000
C    -1.345000000    -2.897000000    -7.319000000
H    -0.914000000    -2.799000000    -8.312000000
C    -0.799000000    -3.831000000    -6.495000000
H     0.172000000    -4.234000000    -6.770000000
C    -1.354000000    -4.146000000    -5.260000000
O    -0.703000000    -5.012000000    -4.424000000
C     0.343000000    -4.620000000    -3.575000000
C     0.842000000    -5.515000000    -2.684000000
H     0.378000000    -6.497000000    -2.720000000
C     1.839000000    -5.226000000    -1.859000000
O     2.136000000    -6.175000000    -0.932000000
C     3.027000000    -5.976000000     0.095000000
C     4.386000000    -6.162000000    -0.177000000
H     4.763000000    -6.386000000    -1.171000000
C     5.289000000    -6.141000000     0.891000000
H     6.333000000    -6.266000000     0.616000000
C     4.850000000    -5.847000000     2.201000000
H     5.461000000    -6.002000000     3.086000000
C     3.510000000    -5.492000000     2.422000000
C     2.634000000    -5.606000000     1.353000000
H     1.593000000    -5.444000000     1.621000000
C    -0.162000000    -2.471000000     1.113000000
H     0.234000000    -3.257000000     1.751000000
C     0.651000000    -1.623000000     0.371000000
H     1.719000000    -1.828000000     0.374000000
C     0.140000000    -0.531000000    -0.358000000
H     0.712000000     0.208000000    -0.911000000
C    -1.163000000    -0.240000000    -0.121000000
H    -1.488000000     0.623000000    -0.697000000
C    -2.097000000    -1.024000000     0.575000000
H    -3.148000000    -0.752000000     0.527000000
C    -1.583000000    -2.152000000     1.196000000
C    -2.544000000    -3.180000000     1.879000000
O    -3.696000000    -2.895000000     2.051000000
O    -2.110000000    -4.244000000     2.167000000
O    -7.009000000    -1.524000000     4.992000000
H    -7.414000000    -0.718000000     4.672000000
H    -6.635000000    -1.284000000     5.840000000
O    -4.553000000    -3.158000000     5.543000000
H    -4.855000000    -3.540000000     4.719000000
H    -4.601000000    -2.213000000     5.401000000
O    -2.731000000    -6.221000000    -2.940000000
H    -2.332000000    -6.698000000    -2.212000000
H    -2.006000000    -5.737000000    -3.335000000
O    -7.060000000    -7.050000000     0.646000000
H    -7.816000000    -6.620000000     0.247000000
H    -6.366000000    -6.972000000    -0.008000000
O    -5.444000000    -3.964000000     7.951000000
H    -5.121000000    -3.804000000     7.064000000
H    -4.794000000    -3.554000000     8.520000000
O    -2.078000000    -4.726000000     6.329000000
H    -2.781000000    -4.245000000     5.893000000
H    -1.988000000    -4.298000000     7.181000000
O    -5.104000000    -5.188000000    -1.402000000
H    -4.947000000    -6.123000000    -1.266000000
H    -4.649000000    -4.985000000    -2.219000000
O    -1.686000000    -2.169000000    -2.270000000
H    -0.761000000    -2.236000000    -2.031000000
H    -1.996000000    -1.390000000    -1.808000000
O    -4.023000000    -5.897000000     3.102000000
H    -4.885000000    -5.486000000     3.160000000
H    -3.472000000    -5.240000000     2.676000000
O    -2.273000000    -5.808000000    -0.037000000
H    -2.945000000    -5.408000000    -0.589000000
H    -2.217000000    -5.232000000     0.726000000
O    -0.761000000    -7.998000000     1.196000000
H    -1.345000000    -8.439000000     1.814000000
H    -1.196000000    -7.166000000     1.008000000
O    -1.060000000    -8.296000000    -1.690000000
H    -0.217000000    -8.329000000    -2.143000000
H    -0.832000000    -8.186000000    -0.767000000
O    -0.673000000    -5.409000000     3.944000000
H    -1.255000000    -4.973000000     3.322000000
H    -1.138000000    -5.363000000     4.779000000
O    -6.098000000    -3.874000000     2.978000000
H    -5.306000000    -3.697000000     2.471000000
H    -6.332000000    -3.028000000     3.361000000
O    -2.203000000    -8.508000000     3.623000000
H    -1.985000000    -8.227000000     4.512000000
H    -3.036000000    -8.076000000     3.433000000
O    -6.217000000    -8.488000000     2.853000000
H    -5.625000000    -8.978000000     2.283000000
H    -6.493000000    -7.739000000     2.326000000
O    -3.573000000    -7.143000000     6.155000000
H    -3.002000000    -6.385000000     6.029000000
H    -4.098000000    -7.183000000     5.355000000
O    -5.570000000    -2.829000000    -0.175000000
H    -5.338000000    -3.734000000    -0.385000000
H    -4.936000000    -2.568000000     0.493000000
O    -8.308000000    -2.625000000     0.946000000
H    -7.532000000    -2.567000000     0.389000000
H    -7.980000000    -2.961000000     1.780000000
