215
-1438.65867
C     3.967000000     1.938000000    -1.829000000
H     3.745000000     1.287000000    -2.671000000
C     4.112000000     1.486000000    -0.533000000
C     4.427000000     2.433000000     0.476000000
H     4.697000000     2.098000000     1.474000000
C     4.028000000     0.082000000    -0.192000000
O     4.622000000    -0.804000000    -1.292000000
H     2.970000000    -0.167000000    -0.024000000
O     4.739000000    -0.237000000     0.986000000
C     4.165000000    -1.090000000     1.874000000
C     3.605000000    -0.443000000     3.005000000
H     3.741000000     0.616000000     3.207000000
C     2.679000000    -1.140000000     3.822000000
O     1.901000000    -0.351000000     4.681000000
C     2.325000000    -2.423000000     3.564000000
C     1.280000000    -3.196000000     4.345000000
H     1.519000000    -4.260000000     4.403000000
C    -0.093000000    -2.967000000     3.716000000
C    -0.680000000    -4.029000000     2.975000000
H    -0.089000000    -4.922000000     2.788000000
H     1.269000000    -2.783000000     5.356000000
C     2.989000000    -3.161000000     2.549000000
H     2.764000000    -4.205000000     2.347000000
C     3.904000000    -2.493000000     1.732000000
C     4.494000000    -3.196000000     0.527000000
H     4.644000000    -4.259000000     0.722000000
H     5.538000000    -2.926000000     0.357000000
C     3.695000000    -2.969000000    -0.812000000
C     2.703000000    -3.893000000    -1.095000000
H     2.536000000    -4.782000000    -0.493000000
C     3.831000000    -1.837000000    -1.632000000
C     3.052000000    -1.685000000    -2.755000000
H     3.097000000    -0.784000000    -3.362000000
C     2.079000000    -2.626000000    -3.027000000
O     1.294000000    -2.285000000    -4.114000000
C    -0.112000000    -1.945000000    -4.023000000
C    -0.569000000    -0.833000000    -4.985000000
C    -1.896000000    -0.709000000    -5.401000000
H    -2.660000000    -1.425000000    -5.109000000
C     0.339000000     0.096000000    -5.432000000
H     1.393000000     0.018000000    -5.178000000
O    -1.061000000    -3.062000000    -3.826000000
H    -0.230000000    -1.362000000    -3.097000000
C     1.900000000    -3.782000000    -2.244000000
C     0.832000000    -4.821000000    -2.561000000
H     1.175000000    -5.798000000    -2.213000000
H     0.832000000    -5.037000000    -3.631000000
C    -0.476000000    -4.415000000    -1.934000000
C    -0.827000000    -4.854000000    -0.671000000
H    -0.112000000    -5.431000000    -0.090000000
C    -1.430000000    -3.660000000    -2.639000000
C    -2.694000000    -3.395000000    -2.101000000
H    -3.406000000    -2.929000000    -2.777000000
C    -2.999000000    -3.762000000    -0.790000000
O    -4.100000000    -3.249000000    -0.217000000
C    -3.871000000    -2.065000000     0.649000000
C    -4.776000000    -0.837000000     0.483000000
C    -5.205000000    -0.555000000    -0.842000000
H    -4.952000000    -1.321000000    -1.570000000
C    -5.038000000     0.038000000     1.535000000
H    -4.733000000    -0.290000000     2.525000000
O    -3.836000000    -2.452000000     2.046000000
H    -2.890000000    -1.674000000     0.341000000
C    -2.006000000    -4.487000000    -0.061000000
C    -2.321000000    -4.874000000     1.369000000
H    -1.867000000    -5.819000000     1.675000000
H    -3.388000000    -5.043000000     1.528000000
C    -1.852000000    -3.778000000     2.284000000
C    -2.545000000    -2.587000000     2.553000000
C    -1.971000000    -1.592000000     3.286000000
H    -2.495000000    -0.641000000     3.342000000
C    -0.755000000    -1.778000000     3.896000000
O    -0.320000000    -0.784000000     4.792000000
C     0.638000000     0.093000000     4.234000000
H     0.561000000    -0.033000000     3.144000000
C     0.397000000     1.557000000     4.602000000
C     1.530000000     2.399000000     4.712000000
H     2.560000000     2.094000000     4.550000000
C    -0.916000000     2.026000000     4.671000000
H    -1.769000000     1.387000000     4.458000000
C    -1.134000000     3.436000000     4.782000000
O    -2.454000000     3.882000000     4.865000000
C    -0.003000000     4.256000000     4.846000000
H    -0.183000000     5.326000000     4.909000000
C     1.297000000     3.799000000     4.922000000
O     2.191000000     4.806000000     5.101000000
C     3.436000000     4.688000000     4.456000000
C     3.575000000     4.563000000     3.045000000
H     2.675000000     4.420000000     2.451000000
C     4.638000000     4.921000000     5.246000000
H     4.578000000     5.236000000     6.285000000
C     5.855000000     5.023000000     4.619000000
H     6.726000000     5.258000000     5.225000000
C     5.938000000     4.930000000     3.250000000
H     6.855000000     5.109000000     2.694000000
C     4.820000000     4.715000000     2.454000000
O     5.046000000     4.712000000     1.077000000
C     4.777000000     3.727000000     0.125000000
C     4.572000000     4.206000000    -1.139000000
H     4.791000000     5.224000000    -1.453000000
C     4.194000000     3.279000000    -2.150000000
O     3.967000000     3.792000000    -3.440000000
C     3.667000000     2.961000000    -4.544000000
C     2.407000000     3.125000000    -5.167000000
H     1.698000000     3.875000000    -4.828000000
C     4.534000000     1.983000000    -4.973000000
H     5.383000000     1.653000000    -4.381000000
C     4.213000000     1.304000000    -6.187000000
H     4.864000000     0.507000000    -6.537000000
C     2.955000000     1.413000000    -6.807000000
H     2.630000000     0.714000000    -7.573000000
C     2.029000000     2.302000000    -6.305000000
O     0.739000000     2.217000000    -6.668000000
C    -0.073000000     1.201000000    -6.212000000
C    -1.431000000     1.331000000    -6.594000000
H    -1.689000000     2.251000000    -7.113000000
C    -2.355000000     0.409000000    -6.101000000
O    -3.657000000     0.620000000    -6.480000000
C    -4.631000000     0.166000000    -5.667000000
C    -5.008000000     0.888000000    -4.500000000
H    -4.484000000     1.838000000    -4.429000000
C    -5.069000000    -1.191000000    -5.807000000
H    -4.644000000    -1.893000000    -6.520000000
C    -5.897000000    -1.699000000    -4.809000000
H    -6.267000000    -2.696000000    -5.035000000
C    -6.301000000    -0.981000000    -3.683000000
H    -6.967000000    -1.278000000    -2.877000000
C    -5.811000000     0.329000000    -3.532000000
O    -6.178000000     1.032000000    -2.395000000
C    -5.902000000     0.662000000    -1.100000000
C    -6.139000000     1.519000000    -0.020000000
H    -6.545000000     2.500000000    -0.254000000
C    -5.734000000     1.199000000     1.282000000
O    -6.098000000     2.122000000     2.300000000
C    -5.424000000     2.252000000     3.526000000
C    -5.947000000     1.590000000     4.663000000
H    -6.752000000     0.879000000     4.496000000
C    -5.172000000     1.631000000     5.823000000
H    -5.511000000     1.079000000     6.696000000
C    -3.974000000     2.323000000     5.865000000
H    -3.390000000     2.167000000     6.768000000
C    -3.586000000     3.064000000     4.761000000
C    -4.298000000     3.016000000     3.599000000
H    -3.924000000     3.607000000     2.767000000
C    -1.845000000     1.716000000    -1.787000000
H    -2.301000000     2.260000000    -2.610000000
C    -1.793000000     0.370000000    -1.582000000
H    -2.293000000    -0.314000000    -2.262000000
C    -1.044000000    -0.266000000    -0.579000000
H    -0.997000000    -1.305000000    -0.450000000
C    -0.390000000     0.523000000     0.311000000
H     0.269000000     0.098000000     1.064000000
C    -0.614000000     1.874000000     0.335000000
H    -0.140000000     2.526000000     1.064000000
C    -1.302000000     2.485000000    -0.793000000
C    -1.529000000     3.971000000    -0.848000000
O    -1.319000000     4.740000000     0.073000000
O    -2.133000000     4.472000000    -1.838000000
O    -0.392000000     9.335000000    -3.167000000
H    -0.082000000     8.487000000    -2.850000000
H    -0.368000000     9.902000000    -2.397000000
O    -2.985000000     6.957000000    -1.638000000
H    -2.659000000     6.058000000    -1.611000000
H    -2.275000000     7.481000000    -1.266000000
O    -1.516000000     6.484000000     2.054000000
H    -1.295000000     5.793000000     1.430000000
H    -2.451000000     6.364000000     2.223000000
O    -6.312000000     5.130000000     3.069000000
H    -7.190000000     5.057000000     3.444000000
H    -6.054000000     4.227000000     2.884000000
O    -1.552000000     4.667000000    -4.453000000
H    -1.699000000     4.511000000    -3.520000000
H    -0.805000000     5.265000000    -4.481000000
O    -4.710000000     3.959000000    -2.693000000
H    -3.842000000     4.359000000    -2.637000000
H    -4.873000000     3.616000000    -1.815000000
O     0.707000000     7.237000000    -5.220000000
H     1.315000000     7.590000000    -4.571000000
H     0.020000000     7.900000000    -5.291000000
O    -5.333000000     7.839000000    -2.683000000
H    -4.512000000     7.440000000    -2.395000000
H    -5.897000000     7.809000000    -1.910000000
O    -5.548000000     4.268000000    -5.818000000
H    -5.709000000     3.854000000    -6.666000000
H    -5.127000000     3.586000000    -5.295000000
O     2.075000000     7.704000000    -2.659000000
H     2.225000000     7.188000000    -1.866000000
H     2.893000000     8.184000000    -2.790000000
O    -3.023000000     9.331000000     1.336000000
H    -3.476000000     8.488000000     1.362000000
H    -3.599000000     9.895000000     0.819000000
O    -4.632000000     7.155000000     2.126000000
H    -4.712000000     7.653000000     2.940000000
H    -5.117000000     6.347000000     2.291000000
O    -4.130000000     4.982000000     0.113000000
H    -3.352000000     4.912000000    -0.440000000
H    -3.934000000     5.701000000     0.713000000
O     2.386000000     6.594000000    -0.021000000
H     1.851000000     6.683000000     0.768000000
H     3.270000000     6.425000000     0.307000000
O    -0.370000000     9.391000000     0.604000000
H    -0.195000000     8.636000000     0.043000000
H    -1.296000000     9.308000000     0.835000000
O    -2.714000000     5.586000000    -6.840000000
H    -3.047000000     6.467000000    -6.672000000
H    -2.263000000     5.342000000    -6.031000000
O    -0.084000000     7.688000000     4.273000000
H    -0.339000000     7.332000000     3.422000000
H    -0.843000000     7.532000000     4.835000000
O    -6.687000000     5.887000000    -0.440000000
H    -6.758000000     6.653000000     0.131000000
H    -5.745000000     5.766000000    -0.560000000
O    -0.260000000     7.035000000    -0.734000000
H    -0.603000000     6.198000000    -0.421000000
H     0.691000000     6.921000000    -0.728000000
