215
-1456.51413
C    -3.140000000     1.928000000     2.878000000
H    -3.153000000     2.237000000     1.836000000
C    -2.022000000     2.182000000     3.655000000
C    -1.936000000     1.917000000     4.993000000
H    -1.023000000     2.018000000     5.573000000
C    -0.855000000     2.854000000     2.931000000
O    -1.233000000     4.171000000     2.387000000
H    -0.559000000     2.193000000     2.102000000
O     0.331000000     3.065000000     3.843000000
C     1.617000000     2.897000000     3.399000000
C     2.195000000     1.711000000     3.772000000
H     1.730000000     1.224000000     4.626000000
C     3.313000000     1.215000000     3.110000000
O     3.784000000    -0.057000000     3.452000000
C     4.034000000     2.020000000     2.219000000
C     5.308000000     1.451000000     1.496000000
H     5.838000000     2.353000000     1.182000000
C     4.990000000     0.605000000     0.284000000
C     4.855000000     1.184000000    -0.949000000
H     4.971000000     2.263000000    -1.016000000
H     5.915000000     0.862000000     2.187000000
C     3.420000000     3.292000000     1.883000000
H     3.939000000     3.896000000     1.142000000
C     2.176000000     3.702000000     2.374000000
C     1.605000000     4.984000000     1.942000000
H     2.325000000     5.676000000     1.501000000
H     1.156000000     5.527000000     2.776000000
C     0.595000000     4.773000000     0.797000000
C     1.045000000     4.861000000    -0.525000000
H     2.058000000     5.221000000    -0.690000000
C    -0.808000000     4.458000000     1.083000000
C    -1.677000000     4.236000000     0.006000000
H    -2.712000000     3.940000000     0.157000000
C    -1.242000000     4.297000000    -1.300000000
O    -2.148000000     3.930000000    -2.304000000
C    -1.996000000     2.594000000    -2.863000000
C    -3.343000000     1.907000000    -3.118000000
C    -3.385000000     0.849000000    -4.034000000
H    -2.517000000     0.537000000    -4.608000000
C    -4.391000000     2.138000000    -2.269000000
H    -4.348000000     2.901000000    -1.496000000
O    -1.323000000     2.689000000    -4.077000000
H    -1.352000000     1.962000000    -2.233000000
C     0.154000000     4.670000000    -1.572000000
C     0.597000000     4.684000000    -3.010000000
H     1.477000000     5.329000000    -3.055000000
H    -0.192000000     5.089000000    -3.648000000
C     1.008000000     3.262000000    -3.461000000
C     2.356000000     2.852000000    -3.338000000
H     3.013000000     3.554000000    -2.832000000
C     0.062000000     2.341000000    -4.015000000
C     0.540000000     1.076000000    -4.415000000
H    -0.230000000     0.389000000    -4.756000000
C     1.858000000     0.675000000    -4.262000000
O     2.144000000    -0.689000000    -4.488000000
C     2.175000000    -1.539000000    -3.299000000
C     1.434000000    -2.838000000    -3.425000000
C     0.533000000    -3.001000000    -4.434000000
H     0.367000000    -2.193000000    -5.141000000
C     1.654000000    -3.885000000    -2.498000000
H     2.299000000    -3.673000000    -1.649000000
O     3.577000000    -1.781000000    -2.896000000
H     1.721000000    -0.912000000    -2.518000000
C     2.765000000     1.575000000    -3.736000000
C     4.210000000     1.147000000    -3.438000000
H     4.926000000     1.969000000    -3.508000000
H     4.470000000     0.470000000    -4.254000000
C     4.427000000     0.480000000    -2.066000000
C     4.127000000    -0.904000000    -1.959000000
C     4.367000000    -1.470000000    -0.760000000
H     4.011000000    -2.484000000    -0.601000000
C     4.716000000    -0.775000000     0.344000000
O     4.557000000    -1.408000000     1.638000000
C     3.434000000    -1.046000000     2.404000000
H     2.806000000    -0.529000000     1.665000000
C     2.761000000    -2.200000000     3.009000000
C     1.710000000    -2.060000000     3.976000000
H     1.539000000    -1.046000000     4.328000000
C     3.053000000    -3.542000000     2.605000000
H     3.908000000    -3.738000000     1.963000000
C     2.391000000    -4.681000000     3.138000000
O     2.852000000    -5.874000000     2.760000000
C     1.338000000    -4.489000000     4.063000000
H     0.842000000    -5.364000000     4.474000000
C     1.046000000    -3.203000000     4.488000000
O     0.023000000    -3.118000000     5.420000000
C    -0.189000000    -2.018000000     6.207000000
C    -1.332000000    -1.202000000     6.054000000
H    -1.970000000    -1.391000000     5.194000000
C     0.663000000    -1.769000000     7.327000000
H     1.505000000    -2.438000000     7.484000000
C     0.367000000    -0.696000000     8.240000000
H     1.015000000    -0.459000000     9.081000000
C    -0.844000000    -0.043000000     8.068000000
H    -1.071000000     0.804000000     8.711000000
C    -1.655000000    -0.271000000     6.980000000
O    -2.755000000     0.639000000     6.802000000
C    -2.973000000     1.159000000     5.509000000
C    -4.160000000     0.940000000     4.809000000
H    -4.920000000     0.371000000     5.339000000
C    -4.190000000     1.265000000     3.491000000
O    -5.204000000     0.809000000     2.701000000
C    -5.846000000     1.698000000     1.828000000
C    -6.036000000     1.245000000     0.549000000
H    -5.761000000     0.243000000     0.230000000
C    -6.198000000     3.051000000     2.139000000
H    -5.949000000     3.364000000     3.150000000
C    -6.645000000     3.987000000     1.195000000
H    -6.789000000     5.030000000     1.467000000
C    -6.962000000     3.507000000    -0.074000000
H    -7.372000000     4.086000000    -0.898000000
C    -6.560000000     2.193000000    -0.389000000
O    -6.721000000     1.881000000    -1.717000000
C    -5.625000000     1.550000000    -2.479000000
C    -5.772000000     0.545000000    -3.491000000
H    -6.764000000     0.109000000    -3.575000000
C    -4.599000000     0.106000000    -4.154000000
O    -4.693000000    -1.045000000    -4.902000000
C    -3.765000000    -1.567000000    -5.715000000
C    -3.077000000    -2.568000000    -5.102000000
H    -3.410000000    -2.995000000    -4.160000000
C    -3.365000000    -0.967000000    -6.911000000
H    -3.819000000    -0.052000000    -7.281000000
C    -2.259000000    -1.479000000    -7.590000000
H    -1.847000000    -1.047000000    -8.498000000
C    -1.579000000    -2.611000000    -7.001000000
H    -0.770000000    -3.021000000    -7.600000000
C    -2.004000000    -3.099000000    -5.797000000
O    -1.323000000    -4.195000000    -5.308000000
C    -0.287000000    -4.174000000    -4.422000000
C    -0.092000000    -5.226000000    -3.516000000
H    -0.736000000    -6.099000000    -3.580000000
C     0.915000000    -5.083000000    -2.566000000
O     1.082000000    -6.071000000    -1.613000000
C     2.180000000    -6.221000000    -0.774000000
C     3.264000000    -6.927000000    -1.215000000
H     3.349000000    -7.115000000    -2.283000000
C     4.299000000    -7.178000000    -0.293000000
H     5.197000000    -7.664000000    -0.666000000
C     4.165000000    -6.856000000     0.998000000
H     4.927000000    -7.147000000     1.716000000
C     3.009000000    -6.270000000     1.461000000
C     2.040000000    -5.926000000     0.563000000
H     1.091000000    -5.487000000     0.862000000
C     0.208000000    -2.178000000     0.647000000
H     0.836000000    -3.064000000     0.700000000
C     0.760000000    -1.147000000    -0.092000000
H     1.780000000    -1.312000000    -0.430000000
C     0.106000000     0.054000000    -0.318000000
H     0.742000000     0.920000000    -0.788000000
C    -1.209000000     0.217000000     0.197000000
H    -1.687000000     1.193000000     0.201000000
C    -1.730000000    -0.761000000     1.028000000
H    -2.752000000    -0.714000000     1.394000000
C    -1.052000000    -1.984000000     1.224000000
C    -1.755000000    -3.154000000     1.862000000
O    -2.829000000    -3.000000000     2.433000000
O    -1.360000000    -4.249000000     1.674000000
O    -1.143000000    -8.088000000    -2.213000000
H    -0.835000000    -7.472000000    -1.548000000
H    -0.695000000    -8.908000000    -2.006000000
O    -4.810000000    -2.324000000     7.318000000
H    -5.657000000    -2.688000000     7.061000000
H    -4.357000000    -2.165000000     6.490000000
O    -2.598000000    -9.655000000     0.150000000
H    -3.535000000    -9.475000000     0.079000000
H    -2.210000000    -8.814000000     0.390000000
O    -8.105000000    -0.699000000     1.987000000
H    -8.506000000    -1.398000000     2.503000000
H    -7.301000000    -1.087000000     1.643000000
O    -1.961000000    -4.506000000     7.329000000
H    -1.185000000    -4.130000000     6.913000000
H    -2.675000000    -4.313000000     6.722000000
O    -6.752000000    -2.372000000     5.351000000
H    -7.497000000    -1.792000000     5.506000000
H    -6.308000000    -1.994000000     4.592000000
O    -2.310000000    -4.481000000    -1.319000000
H    -2.308000000    -4.290000000    -0.381000000
H    -1.414000000    -4.302000000    -1.603000000
O    -5.562000000    -5.405000000     6.552000000
H    -4.704000000    -5.219000000     6.169000000
H    -6.139000000    -4.736000000     6.184000000
O    -1.304000000    -6.992000000     1.105000000
H    -1.287000000    -7.242000000     2.029000000
H    -1.162000000    -6.046000000     1.110000000
O    -3.901000000    -3.987000000     4.792000000
H    -3.492000000    -3.600000000     4.018000000
H    -4.800000000    -3.657000000     4.778000000
O    -3.201000000    -7.851000000     4.276000000
H    -3.139000000    -8.174000000     5.175000000
H    -2.508000000    -7.194000000     4.210000000
O     0.101000000    -8.243000000     3.404000000
H     1.020000000    -8.436000000     3.219000000
H     0.113000000    -7.832000000     4.269000000
O    -1.766000000    -5.468000000     4.021000000
H    -1.688000000    -5.017000000     3.180000000
H    -2.456000000    -4.994000000     4.484000000
O    -6.393000000    -2.440000000     0.328000000
H    -6.390000000    -2.931000000    -0.494000000
H    -5.838000000    -2.953000000     0.916000000
O    -4.801000000    -4.569000000     1.431000000
H    -4.872000000    -5.317000000     2.025000000
H    -3.899000000    -4.267000000     1.533000000
O    -8.555000000    -4.624000000     0.913000000
H    -9.360000000    -4.276000000     0.531000000
H    -8.091000000    -3.852000000     1.238000000
O    -5.175000000    -8.224000000     2.505000000
H    -4.507000000    -8.218000000     3.191000000
H    -5.989000000    -8.013000000     2.961000000
O    -4.894000000    -4.896000000    -1.952000000
H    -4.085000000    -4.634000000    -1.511000000
H    -4.600000000    -5.315000000    -2.761000000
O    -4.980000000    -1.786000000     3.238000000
H    -4.193000000    -2.225000000     2.917000000
H    -4.963000000    -0.925000000     2.819000000
