215
-1458.09749
C    -2.844000000     2.443000000     2.519000000
H    -2.934000000     2.688000000     1.464000000
C    -1.567000000     2.663000000     3.103000000
C    -1.443000000     2.118000000     4.410000000
H    -0.503000000     2.239000000     4.942000000
C    -0.355000000     3.179000000     2.401000000
O    -0.728000000     4.317000000     1.628000000
H     0.119000000     2.396000000     1.790000000
O     0.750000000     3.544000000     3.301000000
C     1.959000000     3.037000000     3.011000000
C     2.448000000     1.909000000     3.618000000
H     2.065000000     1.473000000     4.537000000
C     3.542000000     1.241000000     3.076000000
O     3.860000000    -0.005000000     3.479000000
C     4.274000000     1.758000000     1.967000000
C     5.416000000     0.976000000     1.353000000
H     5.979000000     1.777000000     0.869000000
C     4.960000000    -0.022000000     0.315000000
C     4.867000000     0.380000000    -1.060000000
H     5.315000000     1.333000000    -1.329000000
H     6.072000000     0.488000000     2.077000000
C     3.873000000     3.026000000     1.418000000
H     4.427000000     3.279000000     0.518000000
C     2.708000000     3.666000000     1.933000000
C     2.217000000     4.952000000     1.255000000
H     3.122000000     5.459000000     0.914000000
H     1.759000000     5.644000000     1.965000000
C     1.207000000     4.680000000     0.143000000
C     1.743000000     4.646000000    -1.180000000
H     2.801000000     4.746000000    -1.413000000
C    -0.156000000     4.542000000     0.362000000
C    -0.982000000     4.386000000    -0.725000000
H    -2.046000000     4.269000000    -0.536000000
C    -0.458000000     4.243000000    -1.987000000
O    -1.473000000     3.847000000    -2.860000000
C    -1.506000000     2.469000000    -3.363000000
C    -3.026000000     1.982000000    -3.546000000
C    -3.313000000     1.010000000    -4.483000000
H    -2.515000000     0.725000000    -5.164000000
C    -3.985000000     2.299000000    -2.617000000
H    -3.688000000     2.924000000    -1.779000000
O    -0.679000000     2.471000000    -4.568000000
H    -1.067000000     1.786000000    -2.621000000
C     0.872000000     4.368000000    -2.222000000
C     1.487000000     4.222000000    -3.589000000
H     2.458000000     4.722000000    -3.570000000
H     0.825000000     4.741000000    -4.285000000
C     1.590000000     2.719000000    -3.911000000
C     2.796000000     2.041000000    -3.591000000
H     3.636000000     2.631000000    -3.233000000
C     0.544000000     1.966000000    -4.462000000
C     0.668000000     0.628000000    -4.548000000
H    -0.178000000     0.066000000    -4.936000000
C     1.788000000    -0.042000000    -4.182000000
O     1.820000000    -1.440000000    -4.142000000
C     1.707000000    -2.106000000    -2.843000000
C     0.716000000    -3.224000000    -2.851000000
C    -0.510000000    -3.132000000    -3.613000000
H    -0.757000000    -2.255000000    -4.206000000
C     1.090000000    -4.409000000    -2.245000000
H     2.051000000    -4.509000000    -1.748000000
O     3.083000000    -2.551000000    -2.469000000
H     1.293000000    -1.440000000    -2.072000000
C     2.917000000     0.664000000    -3.743000000
C     4.285000000     0.030000000    -3.497000000
H     5.121000000     0.714000000    -3.660000000
H     4.472000000    -0.780000000    -4.204000000
C     4.306000000    -0.489000000    -2.060000000
C     3.803000000    -1.704000000    -1.655000000
C     4.065000000    -2.175000000    -0.372000000
H     3.779000000    -3.196000000    -0.133000000
C     4.560000000    -1.337000000     0.625000000
O     4.527000000    -1.693000000     1.982000000
C     3.434000000    -1.081000000     2.719000000
H     2.737000000    -0.703000000     1.957000000
C     2.673000000    -2.064000000     3.538000000
C     2.243000000    -1.866000000     4.858000000
H     2.394000000    -0.883000000     5.296000000
C     2.411000000    -3.282000000     2.914000000
H     2.793000000    -3.546000000     1.932000000
C     1.580000000    -4.126000000     3.582000000
O     1.148000000    -5.370000000     2.991000000
C     1.111000000    -3.867000000     4.844000000
H     0.269000000    -4.465000000     5.184000000
C     1.438000000    -2.748000000     5.533000000
O     0.837000000    -2.432000000     6.734000000
C     0.315000000    -1.246000000     7.209000000
C    -0.670000000    -0.549000000     6.465000000
H    -1.154000000    -1.088000000     5.655000000
C     0.823000000    -0.741000000     8.409000000
H     1.707000000    -1.167000000     8.876000000
C     0.397000000     0.534000000     8.869000000
H     0.841000000     1.043000000     9.720000000
C    -0.695000000     1.117000000     8.194000000
H    -1.249000000     1.967000000     8.583000000
C    -1.126000000     0.669000000     6.926000000
O    -2.362000000     1.114000000     6.388000000
C    -2.509000000     1.611000000     5.142000000
C    -3.747000000     1.520000000     4.554000000
H    -4.503000000     0.995000000     5.133000000
C    -3.923000000     1.906000000     3.232000000
O    -5.064000000     1.686000000     2.687000000
C    -5.532000000     2.394000000     1.673000000
C    -5.706000000     1.910000000     0.400000000
H    -5.650000000     0.826000000     0.337000000
C    -5.924000000     3.710000000     2.022000000
H    -5.851000000     4.102000000     3.033000000
C    -6.473000000     4.555000000     1.082000000
H    -6.730000000     5.587000000     1.306000000
C    -6.465000000     4.172000000    -0.277000000
H    -6.782000000     4.952000000    -0.964000000
C    -6.098000000     2.817000000    -0.574000000
O    -6.267000000     2.365000000    -1.879000000
C    -5.302000000     1.845000000    -2.668000000
C    -5.657000000     1.004000000    -3.713000000
H    -6.685000000     0.711000000    -3.911000000
C    -4.642000000     0.487000000    -4.542000000
O    -5.105000000    -0.416000000    -5.458000000
C    -4.312000000    -1.446000000    -5.870000000
C    -3.798000000    -2.375000000    -4.960000000
H    -4.091000000    -2.257000000    -3.920000000
C    -4.079000000    -1.649000000    -7.209000000
H    -4.496000000    -0.930000000    -7.910000000
C    -3.313000000    -2.718000000    -7.628000000
H    -3.042000000    -2.745000000    -8.681000000
C    -2.645000000    -3.530000000    -6.714000000
H    -1.985000000    -4.311000000    -7.083000000
C    -2.950000000    -3.383000000    -5.374000000
O    -2.506000000    -4.310000000    -4.450000000
C    -1.285000000    -4.287000000    -3.781000000
C    -0.880000000    -5.489000000    -3.186000000
H    -1.540000000    -6.333000000    -3.371000000
C     0.302000000    -5.525000000    -2.405000000
O     0.609000000    -6.715000000    -1.659000000
C     1.330000000    -6.685000000    -0.490000000
C     2.677000000    -7.024000000    -0.544000000
H     3.130000000    -7.290000000    -1.496000000
C     3.408000000    -6.933000000     0.634000000
H     4.408000000    -7.316000000     0.447000000
C     2.922000000    -6.496000000     1.872000000
H     3.425000000    -6.382000000     2.828000000
C     1.629000000    -6.000000000     1.854000000
C     0.866000000    -6.091000000     0.700000000
H    -0.155000000    -5.719000000     0.718000000
C    -0.752000000    -2.095000000     0.132000000
H    -0.330000000    -3.086000000     0.280000000
C     0.071000000    -0.907000000     0.095000000
H     1.146000000    -1.000000000     0.225000000
C    -0.545000000     0.389000000    -0.118000000
H     0.048000000     1.323000000    -0.073000000
C    -1.885000000     0.466000000    -0.276000000
H    -2.332000000     1.435000000    -0.482000000
C    -2.698000000    -0.653000000    -0.196000000
H    -3.771000000    -0.476000000    -0.179000000
C    -2.181000000    -1.964000000     0.020000000
C    -3.101000000    -3.148000000     0.179000000
O    -4.310000000    -2.870000000     0.143000000
O    -2.721000000    -4.318000000     0.426000000
O    -2.565000000    -3.191000000     5.509000000
H    -3.421000000    -3.338000000     5.106000000
H    -1.984000000    -3.811000000     5.070000000
O    -1.933000000    -6.489000000     4.067000000
H    -2.057000000    -7.045000000     3.297000000
H    -1.938000000    -5.597000000     3.722000000
O    -7.317000000    -0.644000000     1.548000000
H    -7.996000000    -0.091000000     1.935000000
H    -7.416000000    -0.520000000     0.604000000
O    -9.090000000    -4.306000000     0.668000000
H    -9.313000000    -3.778000000    -0.098000000
H    -8.229000000    -3.986000000     0.937000000
O    -7.978000000    -3.839000000    -3.598000000
H    -7.938000000    -3.663000000    -4.538000000
H    -7.062000000    -3.896000000    -3.326000000
O    -4.183000000    -6.182000000    -0.599000000
H    -3.707000000    -5.504000000    -0.119000000
H    -4.305000000    -5.815000000    -1.474000000
O    -4.994000000    -3.881000000     4.419000000
H    -5.702000000    -4.325000000     3.952000000
H    -4.923000000    -3.028000000     3.991000000
O    -4.690000000    -7.415000000     3.662000000
H    -3.879000000    -7.086000000     3.274000000
H    -4.404000000    -8.087000000     4.280000000
O    -4.450000000    -1.654000000     2.843000000
H    -4.463000000    -2.277000000     2.116000000
H    -5.107000000    -0.998000000     2.608000000
O    -7.701000000    -0.691000000    -1.088000000
H    -6.979000000    -1.197000000    -1.461000000
H    -8.069000000    -0.215000000    -1.833000000
O    -6.692000000    -3.247000000     1.523000000
H    -5.951000000    -3.236000000     0.917000000
H    -6.842000000    -2.326000000     1.735000000
O    -3.441000000    -8.890000000    -0.611000000
H    -4.053000000    -9.553000000    -0.929000000
H    -3.951000000    -8.080000000    -0.596000000
O    -1.724000000    -4.207000000     2.919000000
H    -2.014000000    -4.455000000     2.042000000
H    -1.002000000    -3.596000000     2.769000000
O    -5.647000000    -5.218000000    -2.782000000
H    -5.555000000    -5.819000000    -3.521000000
H    -6.282000000    -5.644000000    -2.205000000
O    -2.308000000    -7.447000000     1.620000000
H    -2.162000000    -6.607000000     1.185000000
H    -2.865000000    -7.936000000     1.014000000
O    -7.388000000    -6.166000000    -0.779000000
H    -7.938000000    -5.744000000    -0.120000000
H    -6.626000000    -6.479000000    -0.291000000
O    -7.074000000    -6.659000000     1.900000000
H    -6.430000000    -7.067000000     2.478000000
H    -7.000000000    -5.722000000     2.083000000
O    -5.873000000    -2.467000000    -2.017000000
H    -5.348000000    -2.186000000    -1.269000000
H    -5.558000000    -3.350000000    -2.212000000
O    -9.375000000    -2.723000000    -1.487000000
H    -8.734000000    -2.063000000    -1.226000000
H    -8.893000000    -3.307000000    -2.073000000
