215
-1447.22141
C    -3.563000000     2.117000000     3.242000000
H    -3.746000000     2.671000000     2.324000000
C    -2.272000000     2.075000000     3.789000000
C    -2.002000000     1.252000000     4.940000000
H    -0.963000000     1.179000000     5.249000000
C    -1.147000000     2.733000000     3.049000000
O    -1.548000000     3.865000000     2.343000000
H    -0.793000000     2.032000000     2.279000000
O    -0.015000000     3.123000000     3.908000000
C     1.245000000     2.872000000     3.358000000
C     1.828000000     1.663000000     3.695000000
H     1.352000000     1.064000000     4.467000000
C     3.035000000     1.258000000     3.096000000
O     3.541000000     0.017000000     3.336000000
C     3.757000000     2.182000000     2.274000000
C     5.082000000     1.902000000     1.489000000
H     5.675000000     2.760000000     1.165000000
C     4.943000000     0.970000000     0.310000000
C     4.827000000     1.555000000    -0.930000000
H     4.917000000     2.628000000    -1.079000000
H     5.727000000     1.494000000     2.270000000
C     3.106000000     3.426000000     1.981000000
H     3.512000000     4.212000000     1.350000000
C     1.889000000     3.774000000     2.541000000
C     1.171000000     5.021000000     2.023000000
H     1.915000000     5.789000000     1.799000000
H     0.564000000     5.423000000     2.837000000
C     0.246000000     4.699000000     0.870000000
C     0.675000000     4.728000000    -0.423000000
H     1.733000000     4.938000000    -0.556000000
C    -1.080000000     4.286000000     1.143000000
C    -1.881000000     4.024000000     0.033000000
H    -2.831000000     3.529000000     0.218000000
C    -1.474000000     4.305000000    -1.271000000
O    -2.303000000     3.865000000    -2.294000000
C    -2.124000000     2.554000000    -2.872000000
C    -3.406000000     1.769000000    -2.980000000
C    -3.560000000     0.744000000    -3.890000000
H    -2.834000000     0.434000000    -4.637000000
C    -4.416000000     2.058000000    -2.058000000
H    -4.330000000     2.848000000    -1.317000000
O    -1.234000000     2.591000000    -4.002000000
H    -1.659000000     2.046000000    -2.015000000
C    -0.162000000     4.661000000    -1.507000000
C     0.463000000     4.716000000    -2.873000000
H     1.303000000     5.405000000    -2.765000000
H    -0.100000000     5.072000000    -3.738000000
C     0.988000000     3.319000000    -3.295000000
C     2.356000000     2.948000000    -3.152000000
H     3.012000000     3.575000000    -2.554000000
C     0.068000000     2.392000000    -3.913000000
C     0.548000000     1.164000000    -4.335000000
H    -0.132000000     0.505000000    -4.867000000
C     1.873000000     0.834000000    -4.227000000
O     2.323000000    -0.412000000    -4.464000000
C     2.420000000    -1.158000000    -3.272000000
C     1.775000000    -2.549000000    -3.555000000
C     0.469000000    -2.557000000    -4.106000000
H     0.106000000    -1.762000000    -4.753000000
C     2.225000000    -3.700000000    -2.966000000
H     3.207000000    -3.750000000    -2.502000000
O     3.846000000    -1.244000000    -3.000000000
H     1.780000000    -0.723000000    -2.491000000
C     2.793000000     1.716000000    -3.697000000
C     4.284000000     1.494000000    -3.442000000
H     4.908000000     2.390000000    -3.429000000
H     4.780000000     0.958000000    -4.254000000
C     4.503000000     0.797000000    -2.079000000
C     4.361000000    -0.553000000    -1.994000000
C     4.616000000    -1.112000000    -0.767000000
H     4.524000000    -2.195000000    -0.735000000
C     4.864000000    -0.400000000     0.420000000
O     4.747000000    -1.095000000     1.630000000
C     3.526000000    -1.054000000     2.392000000
H     2.676000000    -0.927000000     1.706000000
C     3.167000000    -2.358000000     3.024000000
C     2.285000000    -2.416000000     4.034000000
H     1.770000000    -1.601000000     4.536000000
C     3.473000000    -3.499000000     2.334000000
H     4.264000000    -3.623000000     1.598000000
C     2.989000000    -4.748000000     2.791000000
O     3.289000000    -5.897000000     2.207000000
C     2.089000000    -4.768000000     3.832000000
H     1.781000000    -5.749000000     4.184000000
C     1.770000000    -3.624000000     4.536000000
O     0.763000000    -3.677000000     5.583000000
C     0.333000000    -2.524000000     6.308000000
C    -0.927000000    -2.067000000     6.024000000
H    -1.338000000    -2.531000000     5.131000000
C     1.222000000    -1.809000000     7.126000000
H     2.197000000    -2.258000000     7.294000000
C     0.708000000    -0.709000000     7.820000000
H     1.297000000    -0.229000000     8.597000000
C    -0.614000000    -0.287000000     7.579000000
H    -1.105000000     0.459000000     8.199000000
C    -1.407000000    -0.927000000     6.648000000
O    -2.699000000    -0.423000000     6.464000000
C    -2.966000000     0.499000000     5.486000000
C    -4.277000000     0.607000000     4.980000000
H    -5.067000000     0.029000000     5.454000000
C    -4.576000000     1.402000000     3.899000000
O    -5.859000000     1.374000000     3.508000000
C    -6.386000000     2.080000000     2.387000000
C    -6.254000000     1.503000000     1.096000000
H    -5.830000000     0.520000000     0.909000000
C    -6.865000000     3.352000000     2.529000000
H    -6.866000000     3.786000000     3.525000000
C    -7.088000000     4.132000000     1.409000000
H    -7.386000000     5.177000000     1.456000000
C    -7.104000000     3.495000000     0.147000000
H    -7.282000000     4.037000000    -0.778000000
C    -6.632000000     2.229000000    -0.001000000
O    -6.657000000     1.619000000    -1.283000000
C    -5.627000000     1.329000000    -2.153000000
C    -5.780000000     0.389000000    -3.123000000
H    -6.761000000    -0.059000000    -3.259000000
C    -4.813000000     0.050000000    -3.955000000
O    -5.117000000    -0.798000000    -5.027000000
C    -4.158000000    -1.639000000    -5.628000000
C    -3.270000000    -2.330000000    -4.823000000
H    -3.418000000    -2.310000000    -3.746000000
C    -4.136000000    -1.743000000    -7.028000000
H    -4.853000000    -1.214000000    -7.651000000
C    -3.148000000    -2.468000000    -7.603000000
H    -3.137000000    -2.496000000    -8.690000000
C    -2.204000000    -3.174000000    -6.856000000
H    -1.346000000    -3.700000000    -7.268000000
C    -2.237000000    -3.089000000    -5.463000000
O    -1.504000000    -3.944000000    -4.713000000
C    -0.288000000    -3.749000000    -4.098000000
C     0.170000000    -4.890000000    -3.458000000
H    -0.375000000    -5.830000000    -3.427000000
C     1.464000000    -4.846000000    -2.999000000
O     1.866000000    -5.997000000    -2.409000000
C     2.759000000    -6.077000000    -1.437000000
C     4.051000000    -6.479000000    -1.830000000
H     4.309000000    -6.658000000    -2.871000000
C     5.082000000    -6.642000000    -0.909000000
H     6.029000000    -7.063000000    -1.238000000
C     4.803000000    -6.326000000     0.412000000
H     5.507000000    -6.536000000     1.213000000
C     3.508000000    -6.009000000     0.850000000
C     2.480000000    -5.888000000    -0.116000000
H     1.489000000    -5.622000000     0.243000000
C    -0.118000000    -2.448000000     0.552000000
H     0.398000000    -3.371000000     0.805000000
C     0.640000000    -1.516000000    -0.130000000
H     1.686000000    -1.708000000    -0.352000000
C     0.135000000    -0.244000000    -0.385000000
H     0.678000000     0.614000000    -0.810000000
C    -1.163000000     0.017000000     0.122000000
H    -1.631000000     0.988000000    -0.022000000
C    -1.918000000    -0.974000000     0.786000000
H    -2.914000000    -0.707000000     1.128000000
C    -1.388000000    -2.186000000     1.072000000
C    -2.009000000    -3.058000000     2.054000000
O    -3.006000000    -2.688000000     2.660000000
O    -1.543000000    -4.129000000     2.281000000
O    -4.264000000    -2.651000000     7.847000000
H    -3.932000000    -3.547000000     7.911000000
H    -3.965000000    -2.345000000     6.990000000
O    -0.501000000    -5.360000000     8.046000000
H    -1.295000000    -5.643000000     7.593000000
H    -0.817000000    -4.819000000     8.769000000
O    -7.844000000    -0.820000000     2.771000000
H    -7.921000000    -0.222000000     3.514000000
H    -6.967000000    -1.195000000     2.855000000
O    -2.783000000    -6.326000000     6.376000000
H    -3.556000000    -5.815000000     6.615000000
H    -2.415000000    -5.866000000     5.622000000
O    -6.865000000    -4.438000000     5.331000000
H    -7.517000000    -3.759000000     5.507000000
H    -6.770000000    -4.436000000     4.378000000
O    -2.368000000    -3.104000000    -1.522000000
H    -2.299000000    -4.049000000    -1.388000000
H    -1.619000000    -2.739000000    -1.049000000
O    -1.892000000    -9.195000000     1.320000000
H    -1.442000000    -8.685000000     1.994000000
H    -2.761000000    -8.797000000     1.258000000
O    -4.075000000    -3.570000000     4.880000000
H    -3.611000000    -3.182000000     4.138000000
H    -4.995000000    -3.359000000     4.724000000
O    -3.856000000    -5.632000000     3.216000000
H    -3.192000000    -5.266000000     2.632000000
H    -4.007000000    -4.946000000     3.867000000
O    -0.329000000    -8.110000000     3.195000000
H     0.581000000    -8.248000000     3.459000000
H    -0.603000000    -7.331000000     3.679000000
O    -1.065000000    -8.198000000    -1.441000000
H    -0.745000000    -7.419000000    -0.986000000
H    -1.001000000    -8.898000000    -0.790000000
O    -0.996000000    -5.719000000     4.312000000
H    -1.150000000    -5.166000000     3.546000000
H    -0.443000000    -5.187000000     4.885000000
O    -5.264000000    -2.393000000    -0.783000000
H    -5.788000000    -2.452000000    -1.581000000
H    -4.360000000    -2.338000000    -1.094000000
O    -2.100000000    -5.533000000    -0.164000000
H    -2.792000000    -6.144000000     0.089000000
H    -1.887000000    -5.064000000     0.642000000
O    -3.558000000    -7.190000000    -2.610000000
H    -2.669000000    -7.287000000    -2.267000000
H    -3.794000000    -8.066000000    -2.913000000
O    -6.990000000    -4.235000000     2.676000000
H    -7.377000000    -4.668000000     1.916000000
H    -6.488000000    -3.508000000     2.308000000
O    -3.966000000    -8.295000000     2.938000000
H    -3.218000000    -8.572000000     3.465000000
H    -4.100000000    -7.377000000     3.176000000
O    -4.008000000    -4.949000000    -3.948000000
H    -3.155000000    -4.522000000    -4.026000000
H    -3.862000000    -5.666000000    -3.331000000
O    -5.423000000    -1.966000000     2.199000000
H    -4.507000000    -2.037000000     2.469000000
H    -5.407000000    -2.119000000     1.254000000
