215
-1477.79682
C    -2.204000000     3.353000000     2.670000000
H    -2.632000000     3.629000000     1.710000000
C    -0.847000000     3.431000000     2.862000000
C    -0.323000000     3.128000000     4.168000000
H     0.703000000     3.419000000     4.383000000
C     0.065000000     3.813000000     1.694000000
O    -0.446000000     4.810000000     0.820000000
H     0.173000000     2.919000000     1.062000000
O     1.363000000     4.125000000     2.126000000
C     2.431000000     3.505000000     1.597000000
C     2.916000000     2.364000000     2.150000000
H     2.465000000     1.907000000     3.027000000
C     3.918000000     1.616000000     1.558000000
O     4.306000000     0.496000000     2.254000000
C     4.403000000     2.008000000     0.317000000
C     5.418000000     1.167000000    -0.435000000
H     5.893000000     1.832000000    -1.160000000
C     4.721000000     0.038000000    -1.096000000
C     4.423000000     0.224000000    -2.420000000
H     4.664000000     1.177000000    -2.883000000
H     6.189000000     0.760000000     0.223000000
C     3.990000000     3.242000000    -0.250000000
H     4.398000000     3.640000000    -1.176000000
C     2.906000000     3.900000000     0.305000000
C     2.236000000     5.087000000    -0.357000000
H     2.994000000     5.489000000    -1.031000000
H     1.961000000     5.844000000     0.380000000
C     0.943000000     4.584000000    -1.104000000
C     1.049000000     4.137000000    -2.425000000
H     2.021000000     4.061000000    -2.906000000
C    -0.321000000     4.610000000    -0.542000000
C    -1.414000000     4.009000000    -1.166000000
H    -2.367000000     3.970000000    -0.645000000
C    -1.318000000     3.562000000    -2.417000000
O    -2.483000000     3.044000000    -3.039000000
C    -2.543000000     1.610000000    -3.041000000
C    -3.891000000     1.163000000    -2.519000000
C    -4.223000000    -0.146000000    -2.653000000
H    -3.463000000    -0.809000000    -3.058000000
C    -4.734000000     1.909000000    -1.667000000
H    -4.369000000     2.929000000    -1.581000000
O    -2.199000000     1.027000000    -4.327000000
H    -1.861000000     1.274000000    -2.245000000
C    -0.102000000     3.662000000    -3.105000000
C    -0.152000000     3.235000000    -4.572000000
H     0.593000000     3.793000000    -5.143000000
H    -1.133000000     3.414000000    -5.017000000
C     0.144000000     1.744000000    -4.600000000
C     1.478000000     1.337000000    -4.651000000
H     2.280000000     2.070000000    -4.640000000
C    -0.868000000     0.735000000    -4.559000000
C    -0.554000000    -0.653000000    -4.621000000
H    -1.280000000    -1.457000000    -4.527000000
C     0.748000000    -0.982000000    -4.657000000
O     0.980000000    -2.293000000    -4.562000000
C     1.349000000    -2.736000000    -3.246000000
C     0.565000000    -3.959000000    -2.846000000
C    -0.706000000    -4.238000000    -3.453000000
H    -1.042000000    -3.729000000    -4.352000000
C     0.934000000    -4.741000000    -1.773000000
H     1.842000000    -4.484000000    -1.233000000
O     2.719000000    -2.917000000    -3.173000000
H     1.110000000    -1.966000000    -2.497000000
C     1.840000000    -0.032000000    -4.591000000
C     3.351000000    -0.450000000    -4.551000000
H     3.883000000     0.411000000    -4.962000000
H     3.550000000    -1.374000000    -5.098000000
C     3.771000000    -0.752000000    -3.117000000
C     3.392000000    -1.899000000    -2.471000000
C     3.642000000    -2.141000000    -1.083000000
H     3.403000000    -3.093000000    -0.617000000
C     4.288000000    -1.152000000    -0.427000000
O     4.584000000    -1.437000000     0.898000000
C     3.724000000    -0.775000000     1.841000000
H     2.801000000    -0.466000000     1.327000000
C     3.354000000    -1.574000000     3.099000000
C     3.106000000    -0.966000000     4.323000000
H     3.276000000     0.086000000     4.535000000
C     2.981000000    -2.905000000     2.943000000
H     2.903000000    -3.204000000     1.901000000
C     2.576000000    -3.693000000     4.021000000
O     2.207000000    -5.004000000     3.816000000
C     2.203000000    -2.994000000     5.185000000
H     1.709000000    -3.497000000     6.013000000
C     2.557000000    -1.715000000     5.355000000
O     2.248000000    -1.139000000     6.581000000
C     2.058000000     0.184000000     6.788000000
C     0.868000000     0.657000000     6.353000000
H     0.081000000     0.023000000     5.951000000
C     3.012000000     0.931000000     7.412000000
H     3.927000000     0.453000000     7.754000000
C     2.743000000     2.223000000     7.655000000
H     3.480000000     2.782000000     8.226000000
C     1.518000000     2.807000000     7.335000000
H     1.189000000     3.826000000     7.522000000
C     0.583000000     1.994000000     6.717000000
O    -0.630000000     2.500000000     6.448000000
C    -1.147000000     2.697000000     5.164000000
C    -2.503000000     2.581000000     4.939000000
H    -3.067000000     2.373000000     5.845000000
C    -3.029000000     2.886000000     3.701000000
O    -4.358000000     2.545000000     3.558000000
C    -5.216000000     3.133000000     2.603000000
C    -5.540000000     2.447000000     1.419000000
H    -5.176000000     1.442000000     1.223000000
C    -5.712000000     4.373000000     2.791000000
H    -5.455000000     4.884000000     3.715000000
C    -6.532000000     4.981000000     1.808000000
H    -6.749000000     6.037000000     1.948000000
C    -6.910000000     4.264000000     0.659000000
H    -7.667000000     4.659000000    -0.015000000
C    -6.378000000     2.983000000     0.474000000
O    -6.875000000     2.182000000    -0.496000000
C    -5.984000000     1.440000000    -1.237000000
C    -6.375000000     0.145000000    -1.580000000
H    -7.338000000    -0.287000000    -1.322000000
C    -5.421000000    -0.706000000    -2.213000000
O    -5.787000000    -2.033000000    -2.461000000
C    -5.128000000    -2.798000000    -3.435000000
C    -4.243000000    -3.767000000    -2.973000000
H    -3.993000000    -3.797000000    -1.915000000
C    -5.299000000    -2.592000000    -4.814000000
H    -5.974000000    -1.775000000    -5.055000000
C    -4.507000000    -3.226000000    -5.682000000
H    -4.476000000    -2.971000000    -6.738000000
C    -3.685000000    -4.293000000    -5.348000000
H    -3.151000000    -4.921000000    -6.057000000
C    -3.552000000    -4.590000000    -3.958000000
O    -2.709000000    -5.581000000    -3.492000000
C    -1.462000000    -5.336000000    -3.004000000
C    -1.018000000    -6.084000000    -1.924000000
H    -1.724000000    -6.836000000    -1.582000000
C     0.165000000    -5.782000000    -1.293000000
O     0.568000000    -6.645000000    -0.221000000
C     1.686000000    -6.524000000     0.556000000
C     2.960000000    -6.982000000     0.226000000
H     3.079000000    -7.589000000    -0.668000000
C     4.026000000    -6.815000000     1.146000000
H     5.024000000    -7.044000000     0.781000000
C     3.788000000    -6.216000000     2.433000000
H     4.542000000    -6.062000000     3.201000000
C     2.475000000    -5.707000000     2.669000000
C     1.441000000    -5.860000000     1.748000000
H     0.428000000    -5.480000000     1.853000000
C    -1.461000000    -2.520000000     0.301000000
H    -1.337000000    -3.598000000     0.362000000
C    -0.415000000    -1.784000000    -0.165000000
H     0.563000000    -2.188000000    -0.413000000
C    -0.613000000    -0.390000000    -0.329000000
H     0.122000000     0.214000000    -0.842000000
C    -1.813000000     0.181000000     0.018000000
H    -1.831000000     1.265000000    -0.072000000
C    -2.869000000    -0.607000000     0.477000000
H    -3.795000000    -0.190000000     0.865000000
C    -2.694000000    -1.992000000     0.609000000
C    -3.904000000    -2.781000000     1.112000000
O    -4.984000000    -2.276000000     1.412000000
O    -3.680000000    -3.982000000     1.383000000
O    -2.913000000    -0.381000000     5.986000000
H    -3.744000000    -0.460000000     5.518000000
H    -2.252000000    -0.337000000     5.294000000
O    -7.871000000    -6.426000000    -1.432000000
H    -7.397000000    -5.846000000    -0.835000000
H    -8.352000000    -7.020000000    -0.856000000
O    -3.530000000    -8.574000000     2.275000000
H    -4.059000000    -7.817000000     2.023000000
H    -2.672000000    -8.408000000     1.883000000
O    -1.601000000    -1.052000000     3.672000000
H    -1.391000000    -1.958000000     3.900000000
H    -2.470000000    -1.101000000     3.273000000
O    -5.932000000     0.943000000     5.283000000
H    -6.680000000     0.614000000     5.781000000
H    -5.691000000     1.758000000     5.723000000
O    -8.895000000    -3.161000000    -1.792000000
H    -8.548000000    -3.109000000    -0.901000000
H    -8.153000000    -3.450000000    -2.322000000
O    -1.910000000    -5.901000000     2.366000000
H    -2.378000000    -5.290000000     1.796000000
H    -2.474000000    -5.992000000     3.134000000
O    -4.489000000    -0.717000000     3.552000000
H    -4.992000000    -0.052000000     4.022000000
H    -5.022000000    -0.923000000     2.784000000
O    -9.550000000     0.454000000     1.651000000
H    -8.656000000     0.112000000     1.640000000
H    -9.465000000     1.334000000     2.018000000
O    -5.447000000    -3.565000000     4.023000000
H    -5.732000000    -2.671000000     3.836000000
H    -4.867000000    -3.788000000     3.295000000
O     0.592000000     0.322000000     2.183000000
H     0.253000000     0.072000000     1.324000000
H    -0.057000000    -0.010000000     2.803000000
O    -5.836000000    -6.305000000     4.391000000
H    -5.533000000    -6.534000000     3.513000000
H    -5.625000000    -5.375000000     4.483000000
O    -1.504000000    -3.709000000     4.411000000
H    -1.174000000    -4.291000000     3.725000000
H    -1.094000000    -4.029000000     5.214000000
O    -7.095000000    -4.280000000     0.425000000
H    -7.651000000    -4.038000000     1.166000000
H    -6.448000000    -3.577000000     0.373000000
O    -5.018000000    -6.280000000     1.780000000
H    -4.527000000    -5.480000000     1.591000000
H    -5.908000000    -6.091000000     1.481000000
O    -4.072000000    -3.217000000     6.381000000
H    -3.305000000    -2.758000000     6.039000000
H    -4.531000000    -3.531000000     5.602000000
O    -7.781000000    -1.457000000     4.360000000
H    -8.270000000    -2.249000000     4.587000000
H    -7.561000000    -1.062000000     5.203000000
O    -9.187000000    -4.029000000     2.374000000
H    -9.815000000    -4.625000000     1.966000000
H    -9.725000000    -3.319000000     2.725000000
O    -7.187000000    -0.797000000     1.780000000
H    -7.555000000    -1.213000000     2.560000000
H    -6.477000000    -1.380000000     1.510000000
