215
-1446.38756
C    -3.063000000     2.481000000     2.791000000
H    -3.152000000     2.555000000     1.711000000
C    -1.836000000     2.993000000     3.227000000
C    -1.578000000     2.870000000     4.577000000
H    -0.726000000     3.358000000     5.043000000
C    -0.783000000     3.442000000     2.159000000
O    -1.402000000     4.427000000     1.200000000
H    -0.436000000     2.518000000     1.672000000
O     0.270000000     4.107000000     2.807000000
C     1.547000000     3.765000000     2.370000000
C     2.070000000     2.684000000     2.899000000
H     1.616000000     2.183000000     3.750000000
C     3.274000000     2.123000000     2.404000000
O     3.660000000     0.880000000     2.947000000
C     3.821000000     2.595000000     1.215000000
C     5.033000000     1.948000000     0.624000000
H     5.545000000     2.694000000     0.013000000
C     4.593000000     0.847000000    -0.347000000
C     4.524000000     1.100000000    -1.767000000
H     4.478000000     2.144000000    -2.066000000
H     5.711000000     1.553000000     1.383000000
C     3.203000000     3.687000000     0.598000000
H     3.445000000     4.018000000    -0.409000000
C     2.073000000     4.267000000     1.165000000
C     1.379000000     5.460000000     0.497000000
H     2.147000000     6.002000000    -0.058000000
H     0.977000000     6.295000000     1.075000000
C     0.397000000     4.923000000    -0.527000000
C     0.765000000     4.748000000    -1.835000000
H     1.771000000     5.001000000    -2.161000000
C    -0.911000000     4.480000000    -0.109000000
C    -1.841000000     4.132000000    -1.114000000
H    -2.871000000     3.916000000    -0.841000000
C    -1.399000000     3.957000000    -2.451000000
O    -2.315000000     3.454000000    -3.349000000
C    -2.161000000     2.012000000    -3.353000000
C    -3.447000000     1.294000000    -3.036000000
C    -3.423000000    -0.067000000    -3.159000000
H    -2.484000000    -0.586000000    -3.339000000
C    -4.557000000     1.899000000    -2.478000000
H    -4.608000000     2.960000000    -2.247000000
O    -1.613000000     1.700000000    -4.595000000
H    -1.408000000     1.713000000    -2.609000000
C    -0.108000000     4.264000000    -2.821000000
C     0.421000000     3.830000000    -4.206000000
H     1.258000000     4.501000000    -4.411000000
H    -0.371000000     4.069000000    -4.918000000
C     0.744000000     2.391000000    -4.402000000
C     2.034000000     2.019000000    -4.281000000
H     2.729000000     2.847000000    -4.166000000
C    -0.289000000     1.385000000    -4.625000000
C     0.105000000     0.034000000    -4.538000000
H    -0.708000000    -0.684000000    -4.600000000
C     1.431000000    -0.289000000    -4.411000000
O     1.725000000    -1.633000000    -4.382000000
C     1.971000000    -2.312000000    -3.069000000
C     1.448000000    -3.774000000    -2.988000000
C     0.303000000    -4.145000000    -3.699000000
H    -0.221000000    -3.416000000    -4.311000000
C     2.106000000    -4.659000000    -2.161000000
H     3.022000000    -4.297000000    -1.701000000
O     3.416000000    -2.161000000    -2.795000000
H     1.411000000    -1.766000000    -2.295000000
C     2.414000000     0.696000000    -4.392000000
C     3.888000000     0.311000000    -4.048000000
H     4.387000000     1.190000000    -4.460000000
H     4.220000000    -0.549000000    -4.634000000
C     4.156000000     0.051000000    -2.598000000
C     3.898000000    -1.181000000    -2.045000000
C     3.939000000    -1.435000000    -0.679000000
H     3.674000000    -2.426000000    -0.319000000
C     4.309000000    -0.420000000     0.159000000
O     4.419000000    -0.722000000     1.488000000
C     3.348000000    -0.363000000     2.262000000
H     2.522000000    -0.184000000     1.557000000
C     2.810000000    -1.458000000     3.204000000
C     2.238000000    -1.132000000     4.487000000
H     2.286000000    -0.107000000     4.844000000
C     2.813000000    -2.843000000     2.814000000
H     3.198000000    -3.078000000     1.825000000
C     2.377000000    -3.823000000     3.683000000
O     2.213000000    -5.095000000     3.271000000
C     1.738000000    -3.466000000     4.803000000
H     1.271000000    -4.231000000     5.418000000
C     1.648000000    -2.130000000     5.294000000
O     0.910000000    -1.807000000     6.421000000
C     0.663000000    -0.558000000     6.802000000
C    -0.623000000    -0.005000000     6.549000000
H    -1.383000000    -0.622000000     6.078000000
C     1.622000000     0.125000000     7.526000000
H     2.534000000    -0.423000000     7.749000000
C     1.249000000     1.360000000     8.075000000
H     1.923000000     1.968000000     8.673000000
C     0.018000000     1.906000000     7.824000000
H    -0.202000000     2.912000000     8.172000000
C    -0.927000000     1.250000000     7.023000000
O    -2.099000000     1.880000000     6.739000000
C    -2.493000000     2.152000000     5.402000000
C    -3.791000000     1.789000000     4.929000000
H    -4.456000000     1.188000000     5.545000000
C    -4.019000000     1.987000000     3.608000000
O    -5.143000000     1.371000000     3.010000000
C    -5.863000000     2.077000000     2.031000000
C    -6.029000000     1.529000000     0.741000000
H    -5.877000000     0.457000000     0.641000000
C    -6.244000000     3.442000000     2.162000000
H    -6.052000000     4.030000000     3.056000000
C    -6.712000000     4.181000000     1.095000000
H    -6.799000000     5.257000000     1.226000000
C    -6.872000000     3.632000000    -0.171000000
H    -7.190000000     4.228000000    -1.023000000
C    -6.577000000     2.265000000    -0.337000000
O    -6.788000000     1.687000000    -1.566000000
C    -5.736000000     1.095000000    -2.216000000
C    -5.725000000    -0.297000000    -2.464000000
H    -6.562000000    -0.937000000    -2.194000000
C    -4.560000000    -0.860000000    -2.975000000
O    -4.661000000    -2.205000000    -3.202000000
C    -3.886000000    -2.937000000    -4.016000000
C    -3.191000000    -4.033000000    -3.603000000
H    -3.349000000    -4.364000000    -2.580000000
C    -3.993000000    -2.682000000    -5.398000000
H    -4.776000000    -1.981000000    -5.674000000
C    -3.170000000    -3.390000000    -6.314000000
H    -3.283000000    -3.105000000    -7.357000000
C    -2.252000000    -4.340000000    -5.814000000
H    -1.545000000    -4.879000000    -6.440000000
C    -2.319000000    -4.709000000    -4.450000000
O    -1.508000000    -5.696000000    -3.958000000
C    -0.303000000    -5.412000000    -3.458000000
C     0.400000000    -6.334000000    -2.673000000
H     0.015000000    -7.348000000    -2.603000000
C     1.620000000    -5.971000000    -2.046000000
O     2.159000000    -6.995000000    -1.170000000
C     2.739000000    -6.744000000     0.017000000
C     4.128000000    -6.931000000    -0.012000000
H     4.581000000    -7.383000000    -0.891000000
C     4.859000000    -6.661000000     1.151000000
H     5.866000000    -7.045000000     1.293000000
C     4.275000000    -6.038000000     2.227000000
H     4.787000000    -5.855000000     3.168000000
C     2.901000000    -5.683000000     2.198000000
C     2.159000000    -6.044000000     1.071000000
H     1.085000000    -5.877000000     1.034000000
C     0.032000000    -1.465000000    -0.028000000
H     0.709000000    -2.300000000    -0.188000000
C     0.507000000    -0.215000000    -0.287000000
H     1.513000000    -0.064000000    -0.672000000
C    -0.346000000     0.896000000    -0.200000000
H    -0.007000000     1.873000000    -0.514000000
C    -1.656000000     0.820000000     0.187000000
H    -2.421000000     1.588000000     0.107000000
C    -2.148000000    -0.464000000     0.534000000
H    -3.156000000    -0.522000000     0.937000000
C    -1.356000000    -1.625000000     0.337000000
C    -1.886000000    -2.992000000     0.687000000
O    -3.116000000    -3.296000000     0.745000000
O    -1.020000000    -3.822000000     0.982000000
O    -6.558000000    -1.255000000     4.007000000
H    -5.734000000    -1.446000000     3.561000000
H    -6.560000000    -0.303000000     4.110000000
O    -1.240000000    -2.162000000     3.532000000
H    -1.048000000    -2.742000000     2.796000000
H    -0.648000000    -1.419000000     3.412000000
O    -7.244000000    -4.295000000    -2.470000000
H    -6.754000000    -3.650000000    -1.960000000
H    -7.594000000    -3.799000000    -3.210000000
O    -3.600000000    -6.551000000     3.063000000
H    -4.107000000    -5.967000000     2.499000000
H    -2.727000000    -6.159000000     3.089000000
O    -1.435000000    -6.591000000     0.657000000
H    -1.294000000    -5.649000000     0.557000000
H    -2.058000000    -6.814000000    -0.035000000
O    -7.065000000    -6.517000000     1.016000000
H    -6.283000000    -5.965000000     0.983000000
H    -6.731000000    -7.410000000     0.931000000
O    -0.038000000    -8.553000000     2.206000000
H    -0.685000000    -7.946000000     1.846000000
H    -0.347000000    -9.418000000     1.937000000
O    -4.377000000    -2.575000000     3.148000000
H    -3.440000000    -2.406000000     3.247000000
H    -4.451000000    -3.031000000     2.309000000
O    -4.452000000    -5.459000000     0.658000000
H    -4.076000000    -5.987000000    -0.047000000
H    -4.031000000    -4.604000000     0.567000000
O    -4.853000000    -9.129000000     2.797000000
H    -5.486000000    -9.115000000     2.080000000
H    -4.287000000    -8.374000000     2.632000000
O    -0.533000000     0.453000000     3.158000000
H    -1.068000000     1.174000000     3.489000000
H    -0.866000000     0.293000000     2.275000000
O    -3.269000000    -6.722000000    -1.590000000
H    -4.101000000    -6.933000000    -2.013000000
H    -2.608000000    -6.905000000    -2.258000000
O    -1.274000000    -5.289000000     3.373000000
H    -1.219000000    -4.917000000     2.493000000
H    -0.395000000    -5.627000000     3.546000000
O    -5.654000000    -6.687000000    -3.056000000
H    -6.008000000    -5.838000000    -2.790000000
H    -5.406000000    -6.566000000    -3.973000000
O    -3.466000000    -2.294000000     6.834000000
H    -2.833000000    -2.811000000     6.336000000
H    -4.250000000    -2.281000000     6.285000000
O    -1.764000000    -3.907000000     5.595000000
H    -1.664000000    -4.718000000     5.097000000
H    -1.531000000    -3.216000000     4.976000000
O    -8.359000000    -3.452000000     2.311000000
H    -9.157000000    -3.858000000     1.974000000
H    -8.075000000    -2.865000000     1.610000000
O    -8.464000000    -1.786000000     0.106000000
H    -8.569000000    -1.359000000    -0.744000000
H    -7.539000000    -2.031000000     0.138000000
O    -5.512000000    -2.515000000    -0.385000000
H    -5.096000000    -3.037000000     0.301000000
H    -4.785000000    -2.073000000    -0.824000000
