215
-1457.91335
C    -1.986000000     3.985000000     3.486000000
H    -2.136000000     4.694000000     2.676000000
C    -0.650000000     3.526000000     3.608000000
C    -0.321000000     2.828000000     4.755000000
H     0.700000000     2.457000000     4.791000000
C     0.272000000     3.731000000     2.496000000
O    -0.117000000     4.773000000     1.637000000
H     0.311000000     2.814000000     1.889000000
O     1.675000000     3.788000000     2.955000000
C     2.592000000     3.075000000     2.218000000
C     2.896000000     1.882000000     2.695000000
H     2.460000000     1.569000000     3.641000000
C     3.747000000     1.007000000     1.947000000
O     4.134000000    -0.187000000     2.398000000
C     4.352000000     1.562000000     0.789000000
C     5.412000000     0.774000000     0.054000000
H     6.092000000     1.457000000    -0.459000000
C     4.771000000    -0.256000000    -0.896000000
C     4.500000000     0.064000000    -2.263000000
H     4.635000000     1.039000000    -2.725000000
H     6.068000000     0.210000000     0.721000000
C     3.900000000     2.777000000     0.267000000
H     4.266000000     3.121000000    -0.697000000
C     3.062000000     3.578000000     1.061000000
C     2.642000000     5.027000000     0.591000000
H     3.502000000     5.490000000     0.103000000
H     2.288000000     5.751000000     1.328000000
C     1.347000000     4.893000000    -0.262000000
C     1.419000000     4.671000000    -1.614000000
H     2.433000000     4.707000000    -2.002000000
C     0.069000000     4.772000000     0.315000000
C    -0.991000000     4.370000000    -0.472000000
H    -1.922000000     4.173000000     0.054000000
C    -0.903000000     4.151000000    -1.822000000
O    -1.957000000     3.767000000    -2.573000000
C    -2.217000000     2.377000000    -2.836000000
C    -3.580000000     1.772000000    -2.434000000
C    -3.899000000     0.465000000    -2.789000000
H    -3.251000000    -0.109000000    -3.446000000
C    -4.368000000     2.368000000    -1.429000000
H    -4.015000000     3.314000000    -1.026000000
O    -1.748000000     1.978000000    -4.146000000
H    -1.502000000     1.862000000    -2.177000000
C     0.343000000     4.210000000    -2.406000000
C     0.551000000     3.852000000    -3.864000000
H     1.524000000     4.264000000    -4.137000000
H    -0.158000000     4.353000000    -4.526000000
C     0.634000000     2.343000000    -4.175000000
C     1.837000000     1.710000000    -4.282000000
H     2.707000000     2.360000000    -4.322000000
C    -0.523000000     1.527000000    -4.293000000
C    -0.403000000     0.165000000    -4.528000000
H    -1.377000000    -0.316000000    -4.549000000
C     0.830000000    -0.476000000    -4.579000000
O     0.954000000    -1.838000000    -4.751000000
C     1.202000000    -2.586000000    -3.557000000
C     0.320000000    -3.857000000    -3.436000000
C    -0.795000000    -3.963000000    -4.251000000
H    -1.106000000    -3.141000000    -4.891000000
C     0.748000000    -4.925000000    -2.674000000
H     1.661000000    -4.840000000    -2.091000000
O     2.655000000    -2.878000000    -3.425000000
H     0.929000000    -1.898000000    -2.743000000
C     2.028000000     0.342000000    -4.529000000
C     3.389000000    -0.292000000    -4.529000000
H     4.198000000     0.379000000    -4.824000000
H     3.439000000    -1.039000000    -5.324000000
C     3.793000000    -0.826000000    -3.136000000
C     3.370000000    -2.035000000    -2.644000000
C     3.733000000    -2.392000000    -1.340000000
H     3.307000000    -3.309000000    -0.941000000
C     4.332000000    -1.536000000    -0.462000000
O     4.363000000    -1.961000000     0.877000000
C     3.489000000    -1.342000000     1.809000000
H     2.602000000    -0.975000000     1.272000000
C     2.700000000    -2.237000000     2.662000000
C     2.485000000    -1.870000000     3.993000000
H     2.777000000    -0.893000000     4.369000000
C     2.313000000    -3.501000000     2.243000000
H     2.576000000    -3.841000000     1.244000000
C     1.690000000    -4.371000000     3.179000000
O     1.323000000    -5.653000000     2.846000000
C     1.371000000    -3.954000000     4.471000000
H     0.793000000    -4.531000000     5.189000000
C     1.721000000    -2.681000000     4.830000000
O     1.443000000    -2.356000000     6.107000000
C     1.403000000    -1.050000000     6.470000000
C     0.197000000    -0.327000000     6.398000000
H    -0.690000000    -0.751000000     5.934000000
C     2.523000000    -0.554000000     7.104000000
H     3.393000000    -1.196000000     7.211000000
C     2.399000000     0.717000000     7.671000000
H     3.286000000     1.245000000     8.009000000
C     1.227000000     1.422000000     7.599000000
H     1.111000000     2.427000000     7.996000000
C     0.068000000     0.918000000     6.990000000
O    -0.973000000     1.799000000     6.797000000
C    -1.310000000     2.512000000     5.648000000
C    -2.585000000     3.058000000     5.592000000
H    -3.317000000     2.838000000     6.364000000
C    -2.945000000     3.686000000     4.401000000
O    -4.168000000     4.191000000     4.285000000
C    -4.705000000     4.325000000     3.068000000
C    -5.050000000     3.224000000     2.286000000
H    -4.989000000     2.245000000     2.755000000
C    -4.844000000     5.600000000     2.577000000
H    -4.489000000     6.424000000     3.191000000
C    -5.419000000     5.815000000     1.303000000
H    -5.495000000     6.798000000     0.845000000
C    -5.826000000     4.709000000     0.525000000
H    -6.225000000     4.835000000    -0.478000000
C    -5.685000000     3.421000000     1.058000000
O    -6.034000000     2.219000000     0.387000000
C    -5.396000000     1.650000000    -0.715000000
C    -5.605000000     0.299000000    -1.041000000
H    -6.367000000    -0.300000000    -0.549000000
C    -4.936000000    -0.221000000    -2.159000000
O    -5.227000000    -1.516000000    -2.467000000
C    -4.783000000    -2.091000000    -3.605000000
C    -3.842000000    -3.143000000    -3.596000000
H    -3.265000000    -3.411000000    -2.714000000
C    -5.480000000    -1.758000000    -4.750000000
H    -6.278000000    -1.021000000    -4.695000000
C    -5.376000000    -2.590000000    -5.861000000
H    -6.068000000    -2.541000000    -6.697000000
C    -4.409000000    -3.647000000    -5.872000000
H    -4.227000000    -4.224000000    -6.775000000
C    -3.659000000    -3.900000000    -4.756000000
O    -2.888000000    -5.037000000    -4.761000000
C    -1.696000000    -5.032000000    -4.116000000
C    -1.396000000    -6.032000000    -3.215000000
H    -2.043000000    -6.903000000    -3.148000000
C    -0.128000000    -6.022000000    -2.584000000
O     0.190000000    -7.060000000    -1.670000000
C     1.084000000    -6.928000000    -0.651000000
C     2.398000000    -7.367000000    -0.876000000
H     2.660000000    -7.714000000    -1.872000000
C     3.282000000    -7.308000000     0.186000000
H     4.316000000    -7.585000000    -0.002000000
C     2.911000000    -6.749000000     1.415000000
H     3.633000000    -6.630000000     2.219000000
C     1.630000000    -6.347000000     1.648000000
C     0.704000000    -6.438000000     0.615000000
H    -0.339000000    -6.226000000     0.836000000
C    -1.526000000    -3.027000000     0.051000000
H    -1.594000000    -4.100000000    -0.107000000
C    -0.299000000    -2.372000000    -0.040000000
H     0.637000000    -2.926000000    -0.048000000
C    -0.264000000    -0.986000000     0.011000000
H     0.720000000    -0.460000000     0.086000000
C    -1.459000000    -0.254000000     0.133000000
H    -1.384000000     0.827000000     0.225000000
C    -2.693000000    -0.889000000     0.263000000
H    -3.600000000    -0.357000000     0.537000000
C    -2.724000000    -2.333000000     0.248000000
C    -4.033000000    -3.071000000     0.269000000
O    -5.054000000    -2.458000000     0.414000000
O    -3.934000000    -4.236000000    -0.021000000
O    -3.102000000    -2.624000000     6.549000000
H    -3.067000000    -2.552000000     5.595000000
H    -2.260000000    -3.009000000     6.792000000
O    -8.929000000    -3.946000000    -3.461000000
H    -8.893000000    -4.876000000    -3.685000000
H    -8.225000000    -3.826000000    -2.823000000
O    -5.688000000    -8.325000000    -1.025000000
H    -5.860000000    -7.495000000    -0.582000000
H    -5.060000000    -8.104000000    -1.713000000
O    -3.032000000    -2.471000000     3.792000000
H    -2.961000000    -3.326000000     3.367000000
H    -3.830000000    -2.088000000     3.425000000
O    -2.953000000    -6.483000000     0.915000000
H    -2.996000000    -6.364000000     1.864000000
H    -3.239000000    -5.643000000     0.555000000
O    -4.467000000     0.505000000     5.179000000
H    -4.338000000    -0.032000000     4.397000000
H    -3.970000000     0.055000000     5.863000000
O    -5.231000000    -0.857000000     2.769000000
H    -6.162000000    -0.663000000     2.877000000
H    -5.185000000    -1.360000000     1.957000000
O    -6.932000000    -6.076000000    -3.574000000
H    -6.232000000    -5.558000000    -3.177000000
H    -6.492000000    -6.858000000    -3.906000000
O    -6.327000000    -5.629000000     0.286000000
H    -6.706000000    -5.633000000     1.164000000
H    -5.441000000    -5.288000000     0.409000000
O    -2.963000000    -9.263000000     0.983000000
H    -3.839000000    -9.642000000     0.907000000
H    -3.103000000    -8.319000000     0.904000000
O    -6.113000000    -4.517000000     4.204000000
H    -6.581000000    -4.081000000     3.492000000
H    -6.347000000    -4.017000000     4.986000000
O    -1.073000000    -0.490000000     3.159000000
H    -1.663000000    -1.173000000     3.476000000
H    -0.895000000    -0.729000000     2.250000000
O    -6.585000000    -6.852000000     2.977000000
H    -6.967000000    -6.188000000     3.551000000
H    -5.783000000    -7.122000000     3.423000000
O    -8.702000000    -7.312000000    -1.607000000
H    -8.628000000    -7.321000000    -2.561000000
H    -7.851000000    -6.997000000    -1.303000000
O    -3.568000000    -5.325000000     3.448000000
H    -4.440000000    -5.025000000     3.706000000
H    -3.178000000    -5.653000000     4.258000000
O    -6.853000000    -3.536000000    -1.311000000
H    -6.309000000    -2.786000000    -1.069000000
H    -6.731000000    -4.161000000    -0.597000000
O    -4.334000000    -5.932000000    -2.509000000
H    -3.877000000    -5.640000000    -3.298000000
H    -4.182000000    -5.233000000    -1.873000000
O    -9.498000000    -4.902000000     0.857000000
H    -8.775000000    -4.323000000     1.100000000
H    -9.566000000    -4.814000000    -0.094000000
O    -7.129000000    -3.180000000     1.922000000
H    -7.862000000    -2.629000000     1.647000000
H    -6.389000000    -2.872000000     1.399000000
