215
-1448.56887
C    -2.404000000     2.730000000     2.754000000
H    -2.452000000     3.009000000     1.704000000
C    -1.293000000     3.090000000     3.463000000
C    -1.192000000     2.897000000     4.806000000
H    -0.286000000     3.087000000     5.377000000
C    -0.175000000     3.559000000     2.548000000
O    -0.457000000     4.798000000     1.820000000
H     0.000000000     2.714000000     1.866000000
O     1.060000000     3.834000000     3.235000000
C     2.172000000     3.263000000     2.756000000
C     2.638000000     2.088000000     3.283000000
H     2.139000000     1.654000000     4.146000000
C     3.600000000     1.270000000     2.644000000
O     3.792000000     0.022000000     3.130000000
C     4.233000000     1.855000000     1.515000000
C     5.349000000     0.995000000     0.865000000
H     6.130000000     1.668000000     0.506000000
C     4.793000000     0.070000000    -0.180000000
C     4.741000000     0.535000000    -1.503000000
H     5.158000000     1.467000000    -1.876000000
H     5.926000000     0.396000000     1.572000000
C     3.874000000     3.124000000     1.044000000
H     4.419000000     3.562000000     0.212000000
C     2.829000000     3.855000000     1.659000000
C     2.306000000     5.130000000     0.983000000
H     3.079000000     5.572000000     0.351000000
H     2.107000000     5.902000000     1.729000000
C     1.196000000     4.797000000     0.035000000
C     1.486000000     4.532000000    -1.359000000
H     2.528000000     4.668000000    -1.636000000
C    -0.114000000     4.671000000     0.461000000
C    -1.121000000     4.411000000    -0.514000000
H    -2.161000000     4.416000000    -0.197000000
C    -0.844000000     4.257000000    -1.865000000
O    -1.922000000     3.801000000    -2.663000000
C    -1.909000000     2.439000000    -3.012000000
C    -3.311000000     1.814000000    -2.944000000
C    -3.417000000     0.386000000    -3.096000000
H    -2.580000000    -0.215000000    -3.443000000
C    -4.466000000     2.454000000    -2.523000000
H    -4.482000000     3.531000000    -2.376000000
O    -1.277000000     2.055000000    -4.293000000
H    -1.354000000     1.837000000    -2.278000000
C     0.443000000     4.310000000    -2.311000000
C     0.815000000     3.994000000    -3.772000000
H     1.708000000     4.587000000    -3.982000000
H     0.068000000     4.320000000    -4.499000000
C     1.135000000     2.556000000    -4.024000000
C     2.402000000     2.026000000    -3.865000000
H     3.214000000     2.702000000    -3.612000000
C     0.059000000     1.680000000    -4.283000000
C     0.415000000     0.331000000    -4.431000000
H    -0.342000000    -0.433000000    -4.589000000
C     1.674000000    -0.161000000    -4.445000000
O     1.830000000    -1.511000000    -4.575000000
C     1.857000000    -2.267000000    -3.344000000
C     1.133000000    -3.601000000    -3.484000000
C    -0.045000000    -3.727000000    -4.203000000
H    -0.432000000    -2.917000000    -4.816000000
C     1.569000000    -4.740000000    -2.800000000
H     2.449000000    -4.727000000    -2.161000000
O     3.266000000    -2.486000000    -3.030000000
H     1.466000000    -1.635000000    -2.533000000
C     2.684000000     0.652000000    -4.114000000
C     4.099000000     0.164000000    -3.897000000
H     4.690000000     1.061000000    -4.093000000
H     4.395000000    -0.596000000    -4.623000000
C     4.193000000    -0.300000000    -2.459000000
C     3.793000000    -1.589000000    -2.092000000
C     3.918000000    -2.044000000    -0.804000000
H     3.698000000    -3.091000000    -0.614000000
C     4.267000000    -1.167000000     0.224000000
O     4.182000000    -1.586000000     1.531000000
C     3.151000000    -0.999000000     2.335000000
H     2.455000000    -0.468000000     1.669000000
C     2.277000000    -1.966000000     3.117000000
C     1.850000000    -1.736000000     4.416000000
H     2.182000000    -0.778000000     4.805000000
C     1.873000000    -3.130000000     2.514000000
H     2.291000000    -3.421000000     1.554000000
C     1.016000000    -4.025000000     3.188000000
O     0.787000000    -5.330000000     2.648000000
C     0.709000000    -3.815000000     4.544000000
H     0.177000000    -4.629000000     5.031000000
C     1.044000000    -2.631000000     5.151000000
O     0.602000000    -2.368000000     6.402000000
C     0.455000000    -1.062000000     6.895000000
C    -0.673000000    -0.324000000     6.509000000
H    -1.446000000    -0.748000000     5.872000000
C     1.237000000    -0.641000000     7.969000000
H     1.981000000    -1.345000000     8.332000000
C     1.155000000     0.719000000     8.390000000
H     1.655000000     0.964000000     9.324000000
C     0.054000000     1.439000000     7.985000000
H    -0.261000000     2.364000000     8.460000000
C    -0.879000000     0.907000000     7.066000000
O    -2.004000000     1.612000000     6.734000000
C    -2.211000000     2.180000000     5.454000000
C    -3.304000000     1.737000000     4.689000000
H    -4.044000000     1.191000000     5.270000000
C    -3.454000000     2.095000000     3.366000000
O    -4.604000000     1.873000000     2.671000000
C    -5.314000000     2.734000000     1.846000000
C    -5.792000000     2.109000000     0.635000000
H    -5.625000000     1.052000000     0.443000000
C    -5.527000000     4.057000000     2.135000000
H    -5.263000000     4.495000000     3.094000000
C    -6.276000000     4.798000000     1.202000000
H    -6.536000000     5.820000000     1.466000000
C    -6.715000000     4.230000000     0.012000000
H    -7.149000000     4.901000000    -0.725000000
C    -6.467000000     2.897000000    -0.312000000
O    -6.669000000     2.402000000    -1.620000000
C    -5.677000000     1.789000000    -2.248000000
C    -5.719000000     0.464000000    -2.461000000
H    -6.649000000    -0.026000000    -2.183000000
C    -4.658000000    -0.255000000    -2.985000000
O    -4.737000000    -1.591000000    -3.316000000
C    -4.217000000    -2.205000000    -4.398000000
C    -3.536000000    -3.438000000    -4.195000000
H    -3.568000000    -3.947000000    -3.234000000
C    -4.232000000    -1.668000000    -5.722000000
H    -4.738000000    -0.727000000    -5.922000000
C    -3.585000000    -2.380000000    -6.746000000
H    -3.700000000    -2.100000000    -7.790000000
C    -2.824000000    -3.511000000    -6.508000000
H    -2.279000000    -4.014000000    -7.303000000
C    -2.784000000    -4.041000000    -5.210000000
O    -1.922000000    -5.103000000    -4.946000000
C    -0.723000000    -4.959000000    -4.212000000
C    -0.329000000    -6.015000000    -3.407000000
H    -0.839000000    -6.972000000    -3.482000000
C     0.820000000    -5.903000000    -2.623000000
O     1.101000000    -6.992000000    -1.847000000
C     1.684000000    -6.882000000    -0.529000000
C     3.047000000    -7.126000000    -0.319000000
H     3.677000000    -7.382000000    -1.168000000
C     3.571000000    -6.804000000     0.920000000
H     4.651000000    -6.818000000     1.046000000
C     2.800000000    -6.307000000     1.942000000
H     3.244000000    -5.920000000     2.855000000
C     1.529000000    -5.922000000     1.671000000
C     0.975000000    -6.250000000     0.474000000
H    -0.073000000    -6.011000000     0.311000000
C    -0.527000000    -2.292000000    -0.581000000
H    -0.169000000    -3.298000000    -0.783000000
C     0.440000000    -1.220000000    -0.370000000
H     1.512000000    -1.397000000    -0.420000000
C     0.098000000     0.074000000    -0.079000000
H     0.899000000     0.863000000    -0.055000000
C    -1.242000000     0.367000000     0.153000000
H    -1.538000000     1.369000000     0.452000000
C    -2.202000000    -0.678000000    -0.022000000
H    -3.252000000    -0.430000000     0.110000000
C    -1.828000000    -2.007000000    -0.318000000
C    -2.827000000    -3.156000000    -0.441000000
O    -4.008000000    -2.984000000    -0.270000000
O    -2.373000000    -4.290000000    -0.654000000
O    -5.125000000    -1.733000000     6.227000000
H    -5.148000000    -2.396000000     5.537000000
H    -5.547000000    -0.967000000     5.838000000
O    -1.492000000    -8.776000000    -0.087000000
H    -1.647000000    -7.885000000    -0.400000000
H    -2.360000000    -9.181000000    -0.080000000
O    -4.057000000    -2.875000000     3.720000000
H    -4.052000000    -3.688000000     3.215000000
H    -3.153000000    -2.563000000     3.682000000
O    -7.145000000    -0.040000000     2.329000000
H    -6.549000000    -0.726000000     2.030000000
H    -7.475000000     0.359000000     1.524000000
O    -7.383000000    -3.852000000    -4.289000000
H    -7.414000000    -3.084000000    -4.858000000
H    -7.190000000    -3.499000000    -3.420000000
O    -3.651000000    -7.155000000     3.642000000
H    -4.301000000    -7.430000000     2.996000000
H    -3.310000000    -6.328000000     3.301000000
O    -3.203000000    -6.976000000    -1.287000000
H    -2.815000000    -6.115000000    -1.130000000
H    -3.277000000    -7.035000000    -2.240000000
O    -7.315000000    -5.751000000     1.579000000
H    -6.904000000    -5.548000000     0.739000000
H    -6.685000000    -6.320000000     2.023000000
O    -5.549000000    -1.796000000     1.427000000
H    -5.175000000    -1.967000000     2.292000000
H    -4.955000000    -2.234000000     0.818000000
O    -5.561000000    -5.308000000    -0.636000000
H    -5.083000000    -6.115000000    -0.443000000
H    -4.893000000    -4.623000000    -0.615000000
O    -5.332000000    -7.549000000     1.426000000
H    -5.755000000    -8.354000000     1.127000000
H    -4.513000000    -7.511000000     0.932000000
O    -1.612000000    -2.003000000     3.132000000
H    -0.682000000    -2.161000000     3.295000000
H    -1.637000000    -1.575000000     2.276000000
O    -3.371000000    -6.930000000    -3.942000000
H    -2.818000000    -6.309000000    -4.415000000
H    -4.252000000    -6.775000000    -4.283000000
O    -2.911000000    -5.166000000     1.818000000
H    -3.057000000    -4.979000000     0.890000000
H    -1.984000000    -4.973000000     1.958000000
O    -7.853000000    -6.645000000    -3.183000000
H    -7.647000000    -5.813000000    -3.608000000
H    -8.023000000    -6.412000000    -2.270000000
O    -5.611000000    -5.762000000    -5.859000000
H    -5.847000000    -4.890000000    -5.545000000
H    -5.666000000    -5.696000000    -6.812000000
O    -7.710000000    -3.319000000     2.521000000
H    -7.380000000    -4.217000000     2.544000000
H    -7.021000000    -2.822000000     2.079000000
O    -9.732000000    -1.855000000    -0.843000000
H    -9.600000000    -1.145000000    -1.471000000
H    -8.959000000    -2.411000000    -0.942000000
O    -6.973000000    -2.691000000    -1.970000000
H    -6.140000000    -2.422000000    -2.358000000
H    -6.740000000    -2.999000000    -1.094000000
