215
-1449.52843
C    -2.981000000     3.125000000     2.740000000
H    -3.441000000     3.237000000     1.762000000
C    -1.650000000     3.458000000     3.105000000
C    -1.247000000     3.222000000     4.405000000
H    -0.230000000     3.422000000     4.731000000
C    -0.756000000     3.766000000     1.945000000
O    -1.420000000     4.576000000     0.979000000
H    -0.458000000     2.812000000     1.488000000
O     0.348000000     4.478000000     2.389000000
C     1.588000000     4.199000000     1.945000000
C     2.329000000     3.223000000     2.599000000
H     1.866000000     2.845000000     3.507000000
C     3.413000000     2.627000000     2.004000000
O     3.989000000     1.482000000     2.501000000
C     3.738000000     3.055000000     0.671000000
C     4.908000000     2.434000000    -0.076000000
H     5.304000000     3.172000000    -0.777000000
C     4.706000000     1.165000000    -0.894000000
C     4.536000000     1.232000000    -2.270000000
H     4.486000000     2.251000000    -2.644000000
H     5.739000000     2.405000000     0.631000000
C     3.037000000     4.086000000     0.052000000
H     3.335000000     4.460000000    -0.924000000
C     1.942000000     4.583000000     0.626000000
C     1.042000000     5.593000000    -0.208000000
H     1.602000000     6.272000000    -0.855000000
H     0.544000000     6.222000000     0.533000000
C    -0.080000000     4.888000000    -0.957000000
C     0.161000000     4.498000000    -2.267000000
H     1.141000000     4.665000000    -2.708000000
C    -1.259000000     4.476000000    -0.345000000
C    -2.174000000     3.667000000    -0.988000000
H    -3.092000000     3.348000000    -0.502000000
C    -1.877000000     3.262000000    -2.283000000
O    -2.799000000     2.473000000    -2.910000000
C    -2.657000000     0.996000000    -2.941000000
C    -3.983000000     0.315000000    -2.782000000
C    -4.136000000    -0.998000000    -3.237000000
H    -3.362000000    -1.497000000    -3.815000000
C    -4.951000000     0.801000000    -1.938000000
H    -4.805000000     1.837000000    -1.642000000
O    -2.065000000     0.722000000    -4.249000000
H    -2.009000000     0.508000000    -2.199000000
C    -0.805000000     3.764000000    -2.991000000
C    -0.481000000     3.270000000    -4.368000000
H     0.194000000     3.956000000    -4.884000000
H    -1.396000000     3.360000000    -4.958000000
C     0.095000000     1.851000000    -4.253000000
C     1.474000000     1.686000000    -4.172000000
H     2.089000000     2.570000000    -4.027000000
C    -0.714000000     0.710000000    -4.372000000
C    -0.208000000    -0.562000000    -4.435000000
H    -0.814000000    -1.464000000    -4.403000000
C     1.213000000    -0.688000000    -4.499000000
O     1.704000000    -1.895000000    -4.397000000
C     2.208000000    -2.438000000    -3.164000000
C     1.638000000    -3.864000000    -2.863000000
C     0.288000000    -4.201000000    -3.149000000
H    -0.256000000    -3.570000000    -3.846000000
C     2.413000000    -4.690000000    -2.083000000
H     3.387000000    -4.401000000    -1.694000000
O     3.649000000    -2.280000000    -3.076000000
H     1.780000000    -1.837000000    -2.348000000
C     2.116000000     0.433000000    -4.385000000
C     3.616000000     0.404000000    -4.416000000
H     3.916000000     1.394000000    -4.766000000
H     4.100000000    -0.223000000    -5.168000000
C     4.141000000     0.097000000    -3.017000000
C     4.063000000    -1.152000000    -2.444000000
C     4.299000000    -1.222000000    -1.034000000
H     4.190000000    -2.151000000    -0.480000000
C     4.503000000    -0.079000000    -0.275000000
O     4.610000000    -0.215000000     1.090000000
C     3.639000000     0.243000000     2.013000000
H     2.690000000     0.393000000     1.477000000
C     3.422000000    -0.775000000     3.099000000
C     2.882000000    -0.391000000     4.377000000
H     2.641000000     0.617000000     4.704000000
C     3.627000000    -2.168000000     2.860000000
H     3.978000000    -2.428000000     1.865000000
C     3.260000000    -3.118000000     3.794000000
O     3.235000000    -4.542000000     3.512000000
C     2.618000000    -2.696000000     5.008000000
H     2.208000000    -3.368000000     5.758000000
C     2.511000000    -1.340000000     5.371000000
O     1.871000000    -1.038000000     6.573000000
C     1.421000000     0.226000000     6.947000000
C     0.202000000     0.641000000     6.424000000
H    -0.300000000     0.019000000     5.688000000
C     1.942000000     0.854000000     8.016000000
H     2.786000000     0.396000000     8.525000000
C     1.364000000     2.047000000     8.482000000
H     1.759000000     2.446000000     9.413000000
C     0.230000000     2.506000000     7.977000000
H    -0.333000000     3.368000000     8.325000000
C    -0.381000000     1.827000000     6.936000000
O    -1.647000000     2.165000000     6.589000000
C    -2.095000000     2.580000000     5.305000000
C    -3.339000000     2.165000000     4.875000000
H    -3.859000000     1.406000000     5.454000000
C    -3.803000000     2.457000000     3.613000000
O    -5.085000000     2.020000000     3.272000000
C    -5.797000000     2.290000000     2.092000000
C    -6.053000000     1.304000000     1.161000000
H    -5.668000000     0.313000000     1.387000000
C    -6.378000000     3.571000000     1.927000000
H    -6.019000000     4.382000000     2.555000000
C    -7.328000000     3.757000000     0.903000000
H    -7.886000000     4.690000000     0.893000000
C    -7.456000000     2.832000000    -0.096000000
H    -8.047000000     3.072000000    -0.976000000
C    -6.878000000     1.603000000     0.063000000
O    -7.152000000     0.681000000    -0.937000000
C    -6.091000000     0.046000000    -1.581000000
C    -6.261000000    -1.273000000    -2.071000000
H    -7.093000000    -1.845000000    -1.667000000
C    -5.289000000    -1.783000000    -2.890000000
O    -5.486000000    -3.065000000    -3.419000000
C    -4.543000000    -3.809000000    -4.075000000
C    -3.513000000    -4.512000000    -3.365000000
H    -3.610000000    -4.448000000    -2.284000000
C    -4.510000000    -3.887000000    -5.485000000
H    -5.318000000    -3.444000000    -6.061000000
C    -3.506000000    -4.594000000    -6.066000000
H    -3.492000000    -4.771000000    -7.138000000
C    -2.486000000    -5.157000000    -5.319000000
H    -1.669000000    -5.666000000    -5.823000000
C    -2.410000000    -5.076000000    -3.929000000
O    -1.497000000    -5.831000000    -3.207000000
C    -0.250000000    -5.417000000    -2.788000000
C     0.553000000    -6.256000000    -1.983000000
H     0.127000000    -7.175000000    -1.589000000
C     1.820000000    -5.854000000    -1.604000000
O     2.484000000    -6.643000000    -0.701000000
C     3.298000000    -6.198000000     0.271000000
C     4.641000000    -6.463000000     0.165000000
H     4.966000000    -7.053000000    -0.688000000
C     5.515000000    -5.988000000     1.115000000
H     6.554000000    -6.297000000     1.036000000
C     5.035000000    -5.312000000     2.225000000
H     5.705000000    -4.993000000     3.019000000
C     3.685000000    -5.144000000     2.407000000
C     2.807000000    -5.600000000     1.440000000
H     1.735000000    -5.423000000     1.461000000
C    -0.408000000    -1.925000000     0.291000000
H    -0.373000000    -2.962000000     0.614000000
C     0.799000000    -1.215000000    -0.025000000
H     1.781000000    -1.665000000     0.097000000
C     0.771000000     0.175000000    -0.160000000
H     1.648000000     0.820000000    -0.285000000
C    -0.470000000     0.788000000    -0.152000000
H    -0.435000000     1.867000000    -0.282000000
C    -1.676000000     0.112000000     0.115000000
H    -2.573000000     0.723000000     0.175000000
C    -1.637000000    -1.234000000     0.452000000
C    -2.858000000    -2.004000000     0.794000000
O    -3.902000000    -1.451000000     0.953000000
O    -2.856000000    -3.207000000     1.066000000
O    -7.834000000    -3.906000000     3.480000000
H    -8.389000000    -4.594000000     3.847000000
H    -7.158000000    -4.377000000     2.995000000
O    -0.903000000    -1.877000000     4.139000000
H    -1.410000000    -2.639000000     3.858000000
H    -0.246000000    -2.234000000     4.737000000
O    -6.857000000    -5.515000000    -2.481000000
H    -6.263000000    -5.120000000    -1.842000000
H    -6.836000000    -4.917000000    -3.228000000
O    -2.376000000    -6.929000000     4.038000000
H    -2.047000000    -6.289000000     3.407000000
H    -1.708000000    -7.615000000     4.054000000
O    -1.470000000    -5.530000000     1.643000000
H    -1.945000000    -4.705000000     1.536000000
H    -1.706000000    -6.044000000     0.870000000
O    -5.700000000    -2.431000000     5.897000000
H    -6.616000000    -2.706000000     5.857000000
H    -5.547000000    -1.985000000     5.064000000
O    -4.807000000    -1.247000000     3.380000000
H    -4.351000000    -1.315000000     2.541000000
H    -4.229000000    -0.712000000     3.924000000
O    -3.268000000    -7.726000000    -2.182000000
H    -2.941000000    -6.848000000    -2.379000000
H    -3.797000000    -7.962000000    -2.944000000
O    -4.639000000    -4.012000000     3.014000000
H    -5.092000000    -3.180000000     3.152000000
H    -3.929000000    -3.801000000     2.408000000
O    -5.997000000    -6.612000000     2.369000000
H    -6.134000000    -7.113000000     1.564000000
H    -5.346000000    -5.951000000     2.132000000
O    -0.026000000     0.271000000     2.858000000
H    -0.179000000     0.300000000     1.913000000
H    -0.201000000    -0.638000000     3.101000000
O    -3.395000000    -7.501000000     0.511000000
H    -3.298000000    -7.783000000    -0.399000000
H    -4.090000000    -6.844000000     0.484000000
O    -0.082000000    -4.678000000     3.767000000
H    -0.257000000    -5.065000000     2.910000000
H     0.517000000    -5.294000000     4.190000000
O    -4.858000000    -4.904000000     0.043000000
H    -5.584000000    -4.287000000     0.129000000
H    -4.117000000    -4.462000000     0.458000000
O    -2.772000000    -4.260000000     5.296000000
H    -2.007000000    -4.704000000     4.931000000
H    -3.400000000    -4.231000000     4.574000000
O    -6.696000000     0.776000000     5.202000000
H    -6.504000000     0.953000000     4.281000000
H    -7.540000000     0.325000000     5.189000000
O    -4.148000000    -0.087000000     7.681000000
H    -4.634000000    -0.747000000     8.174000000
H    -4.000000000    -0.488000000     6.825000000
O    -8.857000000    -3.632000000    -0.364000000
H    -9.513000000    -3.029000000    -0.016000000
H    -8.078000000    -3.472000000     0.169000000
O    -6.467000000    -2.688000000     1.076000000
H    -6.530000000    -2.446000000     2.000000000
H    -5.687000000    -2.231000000     0.762000000
