215
-1462.03593
C    -2.408000000     3.396000000     2.755000000
H    -2.997000000     3.691000000     1.891000000
C    -1.022000000     3.559000000     2.913000000
C    -0.489000000     3.222000000     4.132000000
H     0.548000000     3.484000000     4.327000000
C    -0.116000000     3.876000000     1.742000000
O    -0.628000000     4.859000000     0.828000000
H    -0.172000000     2.938000000     1.170000000
O     1.220000000     4.288000000     2.091000000
C     2.273000000     3.754000000     1.439000000
C     2.915000000     2.759000000     2.153000000
H     2.580000000     2.454000000     3.141000000
C     3.882000000     1.948000000     1.534000000
O     4.322000000     0.835000000     2.177000000
C     4.311000000     2.260000000     0.234000000
C     5.400000000     1.440000000    -0.507000000
H     5.882000000     1.987000000    -1.320000000
C     4.721000000     0.257000000    -1.216000000
C     4.365000000     0.309000000    -2.578000000
H     4.523000000     1.234000000    -3.127000000
H     6.198000000     1.065000000     0.136000000
C     3.807000000     3.401000000    -0.376000000
H     4.089000000     3.583000000    -1.410000000
C     2.717000000     4.071000000     0.167000000
C     1.967000000     5.184000000    -0.583000000
H     2.644000000     5.653000000    -1.300000000
H     1.686000000     5.992000000     0.096000000
C     0.667000000     4.715000000    -1.211000000
C     0.742000000     4.253000000    -2.531000000
H     1.678000000     4.149000000    -3.074000000
C    -0.503000000     4.578000000    -0.477000000
C    -1.670000000     4.023000000    -1.070000000
H    -2.509000000     4.069000000    -0.380000000
C    -1.659000000     3.640000000    -2.443000000
O    -2.788000000     3.045000000    -2.979000000
C    -2.839000000     1.603000000    -3.067000000
C    -4.199000000     1.094000000    -2.711000000
C    -4.576000000    -0.180000000    -3.253000000
H    -3.935000000    -0.781000000    -3.893000000
C    -5.013000000     1.638000000    -1.684000000
H    -4.791000000     2.648000000    -1.347000000
O    -2.404000000     1.156000000    -4.355000000
H    -2.341000000     1.099000000    -2.226000000
C    -0.444000000     3.732000000    -3.154000000
C    -0.340000000     3.104000000    -4.553000000
H     0.493000000     3.520000000    -5.124000000
H    -1.205000000     3.295000000    -5.191000000
C    -0.054000000     1.664000000    -4.543000000
C     1.270000000     1.262000000    -4.563000000
H     2.038000000     1.992000000    -4.808000000
C    -1.082000000     0.722000000    -4.440000000
C    -0.806000000    -0.640000000    -4.234000000
H    -1.589000000    -1.359000000    -4.009000000
C     0.504000000    -1.019000000    -4.211000000
O     0.772000000    -2.373000000    -4.072000000
C     1.330000000    -2.746000000    -2.800000000
C     0.622000000    -3.994000000    -2.278000000
C    -0.709000000    -4.216000000    -2.733000000
H    -1.125000000    -3.528000000    -3.464000000
C     1.159000000    -4.836000000    -1.353000000
H     2.188000000    -4.734000000    -1.018000000
O     2.785000000    -2.981000000    -2.932000000
H     1.052000000    -1.885000000    -2.174000000
C     1.551000000    -0.089000000    -4.426000000
C     3.025000000    -0.527000000    -4.447000000
H     3.577000000     0.167000000    -5.084000000
H     2.993000000    -1.481000000    -4.978000000
C     3.581000000    -0.686000000    -3.092000000
C     3.397000000    -1.845000000    -2.382000000
C     3.837000000    -2.003000000    -1.067000000
H     3.588000000    -2.915000000    -0.532000000
C     4.519000000    -0.941000000    -0.490000000
O     4.851000000    -1.094000000     0.815000000
C     3.832000000    -0.474000000     1.742000000
H     2.905000000    -0.289000000     1.180000000
C     3.582000000    -1.394000000     2.980000000
C     3.153000000    -0.853000000     4.130000000
H     3.179000000     0.213000000     4.344000000
C     3.682000000    -2.806000000     2.843000000
H     4.071000000    -3.329000000     1.974000000
C     3.256000000    -3.640000000     3.859000000
O     3.175000000    -5.028000000     3.781000000
C     2.736000000    -3.042000000     5.014000000
H     2.387000000    -3.686000000     5.817000000
C     2.762000000    -1.660000000     5.144000000
O     2.096000000    -1.168000000     6.289000000
C     1.868000000     0.146000000     6.537000000
C     0.603000000     0.770000000     6.416000000
H    -0.224000000     0.192000000     6.012000000
C     2.956000000     0.794000000     7.102000000
H     3.901000000     0.266000000     7.204000000
C     2.829000000     2.131000000     7.403000000
H     3.660000000     2.746000000     7.740000000
C     1.641000000     2.828000000     7.164000000
H     1.646000000     3.898000000     7.358000000
C     0.493000000     2.156000000     6.745000000
O    -0.662000000     2.817000000     6.515000000
C    -1.297000000     2.939000000     5.256000000
C    -2.642000000     2.635000000     5.010000000
H    -3.348000000     2.376000000     5.795000000
C    -3.247000000     3.006000000     3.791000000
O    -4.549000000     2.715000000     3.589000000
C    -5.317000000     3.153000000     2.501000000
C    -5.950000000     2.213000000     1.711000000
H    -5.808000000     1.185000000     2.035000000
C    -5.528000000     4.572000000     2.263000000
H    -5.050000000     5.241000000     2.973000000
C    -6.221000000     4.991000000     1.142000000
H    -6.484000000     6.044000000     1.071000000
C    -6.766000000     4.035000000     0.304000000
H    -7.480000000     4.263000000    -0.483000000
C    -6.561000000     2.667000000     0.537000000
O    -7.080000000     1.758000000    -0.416000000
C    -6.197000000     1.075000000    -1.267000000
C    -6.588000000    -0.121000000    -1.842000000
H    -7.509000000    -0.618000000    -1.549000000
C    -5.731000000    -0.709000000    -2.761000000
O    -6.092000000    -1.917000000    -3.281000000
C    -5.178000000    -2.869000000    -3.728000000
C    -4.612000000    -3.794000000    -2.840000000
H    -4.876000000    -3.833000000    -1.787000000
C    -4.748000000    -2.746000000    -5.058000000
H    -5.227000000    -2.044000000    -5.736000000
C    -3.792000000    -3.625000000    -5.465000000
H    -3.445000000    -3.698000000    -6.493000000
C    -3.161000000    -4.536000000    -4.602000000
H    -2.339000000    -5.166000000    -4.931000000
C    -3.547000000    -4.552000000    -3.299000000
O    -2.808000000    -5.343000000    -2.406000000
C    -1.438000000    -5.277000000    -2.253000000
C    -0.862000000    -6.157000000    -1.314000000
H    -1.490000000    -6.888000000    -0.811000000
C     0.435000000    -5.936000000    -0.938000000
O     0.948000000    -6.803000000    -0.026000000
C     2.057000000    -6.656000000     0.690000000
C     3.322000000    -7.123000000     0.164000000
H     3.372000000    -7.656000000    -0.782000000
C     4.431000000    -7.051000000     0.977000000
H     5.455000000    -7.348000000     0.765000000
C     4.321000000    -6.223000000     2.079000000
H     5.169000000    -5.957000000     2.705000000
C     3.104000000    -5.717000000     2.574000000
C     1.918000000    -6.077000000     1.935000000
H     1.000000000    -5.780000000     2.434000000
C    -1.338000000    -2.246000000     0.518000000
H    -1.138000000    -3.312000000     0.597000000
C    -0.287000000    -1.429000000     0.137000000
H     0.636000000    -1.865000000    -0.236000000
C    -0.510000000    -0.074000000    -0.012000000
H     0.204000000     0.636000000    -0.501000000
C    -1.654000000     0.530000000     0.430000000
H    -1.834000000     1.589000000     0.264000000
C    -2.625000000    -0.303000000     0.988000000
H    -3.541000000     0.233000000     1.223000000
C    -2.555000000    -1.640000000     1.000000000
C    -3.700000000    -2.478000000     1.447000000
O    -4.566000000    -1.983000000     2.142000000
O    -3.617000000    -3.721000000     1.312000000
O    -3.769000000    -0.472000000     7.338000000
H    -4.581000000     0.011000000     7.492000000
H    -3.770000000    -0.649000000     6.397000000
O    -1.759000000    -1.768000000     4.787000000
H    -1.879000000    -2.714000000     4.704000000
H    -2.602000000    -1.396000000     4.525000000
O    -8.407000000    -4.461000000    -1.178000000
H    -8.222000000    -4.477000000    -0.239000000
H    -9.336000000    -4.240000000    -1.235000000
O    -3.498000000    -7.189000000     5.562000000
H    -3.607000000    -6.522000000     4.884000000
H    -2.662000000    -7.607000000     5.355000000
O    -2.799000000    -5.724000000     2.819000000
H    -2.941000000    -4.943000000     2.284000000
H    -3.432000000    -6.360000000     2.485000000
O    -4.503000000    -1.350000000     4.628000000
H    -4.438000000    -1.731000000     3.752000000
H    -5.332000000    -0.872000000     4.620000000
O    -9.539000000    -0.164000000     0.910000000
H    -8.615000000    -0.365000000     0.762000000
H    -9.566000000     0.789000000     0.991000000
O    -5.641000000    -4.253000000     3.652000000
H    -5.242000000    -3.680000000     2.997000000
H    -6.136000000    -4.892000000     3.140000000
O    -6.184000000    -5.896000000     5.884000000
H    -5.769000000    -5.140000000     5.468000000
H    -5.503000000    -6.568000000     5.893000000
O    -0.236000000    -0.126000000     3.258000000
H    -0.600000000    -0.330000000     2.397000000
H    -0.686000000    -0.723000000     3.856000000
O    -4.295000000    -7.941000000     2.229000000
H    -3.729000000    -8.650000000     1.924000000
H    -4.718000000    -7.614000000     1.435000000
O    -1.711000000    -4.448000000     5.103000000
H    -1.929000000    -4.884000000     4.279000000
H    -0.951000000    -4.926000000     5.434000000
O    -5.479000000    -5.602000000     0.430000000
H    -6.238000000    -5.062000000     0.648000000
H    -4.726000000    -5.029000000     0.579000000
O    -1.062000000    -8.136000000     1.678000000
H    -0.490000000    -8.429000000     0.969000000
H    -0.961000000    -7.184000000     1.689000000
O    -4.544000000    -3.234000000     6.671000000
H    -4.100000000    -2.565000000     7.192000000
H    -4.647000000    -2.835000000     5.807000000
O    -6.515000000    -7.532000000     3.783000000
H    -6.382000000    -6.887000000     4.477000000
H    -5.729000000    -7.465000000     3.240000000
O    -7.566000000    -0.289000000     3.847000000
H    -8.101000000    -1.042000000     4.099000000
H    -8.156000000     0.460000000     3.925000000
O    -7.559000000    -3.845000000     1.359000000
H    -7.961000000    -3.827000000     2.228000000
H    -7.174000000    -2.975000000     1.256000000
O    -6.991000000    -1.218000000     1.404000000
H    -7.201000000    -0.684000000     2.170000000
H    -6.038000000    -1.306000000     1.426000000
