215
-1466.50736
C    -2.151000000     2.632000000     3.954000000
H    -2.446000000     3.191000000     3.070000000
C    -0.855000000     2.494000000     4.306000000
C    -0.551000000     1.754000000     5.394000000
H     0.489000000     1.719000000     5.709000000
C     0.113000000     2.972000000     3.266000000
O    -0.155000000     4.334000000     2.883000000
H     0.065000000     2.243000000     2.443000000
O     1.535000000     2.921000000     3.746000000
C     2.517000000     2.420000000     2.900000000
C     2.871000000     1.065000000     3.090000000
H     2.439000000     0.644000000     3.994000000
C     3.862000000     0.515000000     2.293000000
O     4.178000000    -0.846000000     2.408000000
C     4.379000000     1.267000000     1.250000000
C     5.391000000     0.731000000     0.278000000
H     6.057000000     1.524000000    -0.068000000
C     4.741000000    -0.019000000    -0.834000000
C     4.400000000     0.714000000    -1.949000000
H     4.745000000     1.744000000    -1.991000000
H     6.144000000     0.083000000     0.731000000
C     3.974000000     2.560000000     1.025000000
H     4.342000000     3.077000000     0.142000000
C     3.055000000     3.216000000     1.882000000
C     2.631000000     4.671000000     1.731000000
H     3.393000000     5.231000000     1.185000000
H     2.483000000     5.116000000     2.718000000
C     1.334000000     4.702000000     0.957000000
C     1.451000000     4.893000000    -0.436000000
H     2.421000000     5.032000000    -0.908000000
C     0.026000000     4.600000000     1.523000000
C    -1.097000000     4.524000000     0.673000000
H    -2.085000000     4.312000000     1.075000000
C    -0.927000000     4.675000000    -0.684000000
O    -2.037000000     4.423000000    -1.438000000
C    -2.155000000     3.183000000    -2.177000000
C    -3.526000000     2.481000000    -2.101000000
C    -3.888000000     1.354000000    -2.820000000
H    -3.184000000     1.025000000    -3.581000000
C    -4.427000000     2.859000000    -1.116000000
H    -4.084000000     3.674000000    -0.484000000
O    -1.736000000     3.287000000    -3.531000000
H    -1.559000000     2.367000000    -1.742000000
C     0.324000000     4.850000000    -1.236000000
C     0.594000000     4.820000000    -2.787000000
H     1.494000000     5.344000000    -3.115000000
H    -0.215000000     5.401000000    -3.236000000
C     0.581000000     3.411000000    -3.303000000
C     1.838000000     2.801000000    -3.438000000
H     2.705000000     3.310000000    -3.025000000
C    -0.508000000     2.733000000    -3.781000000
C    -0.374000000     1.534000000    -4.400000000
H    -1.226000000     0.935000000    -4.710000000
C     0.878000000     0.878000000    -4.518000000
O     0.860000000    -0.523000000    -4.779000000
C     1.115000000    -1.444000000    -3.741000000
C     0.236000000    -2.725000000    -3.772000000
C    -0.847000000    -2.806000000    -4.677000000
H    -1.053000000    -2.006000000    -5.384000000
C     0.499000000    -3.883000000    -2.993000000
H     1.392000000    -3.855000000    -2.375000000
O     2.536000000    -1.837000000    -3.870000000
H     0.895000000    -0.919000000    -2.800000000
C     1.994000000     1.545000000    -4.037000000
C     3.393000000     0.948000000    -4.220000000
H     4.092000000     1.763000000    -4.415000000
H     3.416000000     0.245000000    -5.056000000
C     3.766000000     0.124000000    -3.029000000
C     3.378000000    -1.274000000    -2.918000000
C     3.735000000    -2.017000000    -1.774000000
H     3.482000000    -3.072000000    -1.713000000
C     4.331000000    -1.411000000    -0.730000000
O     4.435000000    -2.149000000     0.391000000
C     3.615000000    -1.779000000     1.498000000
H     2.748000000    -1.305000000     1.014000000
C     3.157000000    -2.984000000     2.257000000
C     2.511000000    -2.794000000     3.484000000
H     2.419000000    -1.821000000     3.959000000
C     3.210000000    -4.284000000     1.734000000
H     3.787000000    -4.471000000     0.832000000
C     2.441000000    -5.274000000     2.353000000
O     2.287000000    -6.502000000     1.695000000
C     1.659000000    -5.093000000     3.461000000
H     0.970000000    -5.877000000     3.763000000
C     1.835000000    -3.837000000     4.110000000
O     0.964000000    -3.665000000     5.204000000
C     1.011000000    -2.639000000     6.102000000
C    -0.058000000    -1.721000000     6.185000000
H    -0.940000000    -1.838000000     5.560000000
C     2.136000000    -2.413000000     6.924000000
H     3.013000000    -3.055000000     6.938000000
C     2.226000000    -1.330000000     7.698000000
H     3.112000000    -1.169000000     8.306000000
C     1.093000000    -0.473000000     7.865000000
H     1.201000000     0.369000000     8.543000000
C    -0.076000000    -0.632000000     7.098000000
O    -1.242000000     0.173000000     7.138000000
C    -1.535000000     1.043000000     6.100000000
C    -2.881000000     1.206000000     5.851000000
H    -3.600000000     0.838000000     6.579000000
C    -3.196000000     2.091000000     4.773000000
O    -4.564000000     2.191000000     4.477000000
C    -4.998000000     2.890000000     3.451000000
C    -5.536000000     2.251000000     2.289000000
H    -5.627000000     1.171000000     2.202000000
C    -4.965000000     4.305000000     3.430000000
H    -4.550000000     4.822000000     4.291000000
C    -5.618000000     5.101000000     2.434000000
H    -5.422000000     6.170000000     2.469000000
C    -6.119000000     4.424000000     1.303000000
H    -6.502000000     4.943000000     0.428000000
C    -6.043000000     3.068000000     1.255000000
O    -6.514000000     2.516000000     0.048000000
C    -5.597000000     2.188000000    -0.942000000
C    -5.957000000     1.073000000    -1.725000000
H    -6.839000000     0.532000000    -1.394000000
C    -5.139000000     0.662000000    -2.694000000
O    -5.490000000    -0.470000000    -3.356000000
C    -4.821000000    -0.974000000    -4.441000000
C    -4.229000000    -2.231000000    -4.453000000
H    -4.151000000    -2.731000000    -3.491000000
C    -4.818000000    -0.245000000    -5.607000000
H    -5.287000000     0.732000000    -5.684000000
C    -4.397000000    -0.839000000    -6.784000000
H    -4.414000000    -0.309000000    -7.732000000
C    -3.756000000    -2.066000000    -6.791000000
H    -3.294000000    -2.464000000    -7.690000000
C    -3.581000000    -2.747000000    -5.570000000
O    -2.805000000    -3.860000000    -5.433000000
C    -1.673000000    -3.914000000    -4.788000000
C    -1.389000000    -5.057000000    -4.049000000
H    -2.009000000    -5.950000000    -4.067000000
C    -0.251000000    -5.034000000    -3.213000000
O     0.116000000    -6.240000000    -2.640000000
C     1.122000000    -6.587000000    -1.808000000
C     2.216000000    -7.232000000    -2.463000000
H     2.056000000    -7.549000000    -3.491000000
C     3.373000000    -7.589000000    -1.742000000
H     4.228000000    -8.074000000    -2.206000000
C     3.386000000    -7.312000000    -0.360000000
H     4.272000000    -7.519000000     0.236000000
C     2.319000000    -6.661000000     0.315000000
C     1.115000000    -6.402000000    -0.391000000
H     0.356000000    -5.772000000     0.066000000
C    -0.641000000    -1.523000000    -0.519000000
H    -0.248000000    -2.520000000    -0.701000000
C     0.160000000    -0.446000000    -0.323000000
H     1.221000000    -0.453000000    -0.557000000
C    -0.416000000     0.741000000     0.102000000
H     0.253000000     1.550000000     0.279000000
C    -1.791000000     0.892000000     0.180000000
H    -2.099000000     1.865000000     0.554000000
C    -2.608000000    -0.130000000    -0.229000000
H    -3.676000000     0.056000000    -0.147000000
C    -2.056000000    -1.373000000    -0.578000000
C    -3.059000000    -2.511000000    -0.786000000
O    -4.229000000    -2.204000000    -0.818000000
O    -2.739000000    -3.701000000    -0.878000000
O    -7.065000000    -6.201000000     0.723000000
H    -6.232000000    -5.750000000     0.864000000
H    -6.927000000    -6.717000000    -0.072000000
O    -4.678000000    -1.780000000     4.148000000
H    -5.263000000    -1.508000000     3.441000000
H    -5.234000000    -2.293000000     4.735000000
O    -7.023000000    -3.919000000    -5.283000000
H    -6.988000000    -3.413000000    -4.471000000
H    -7.875000000    -3.704000000    -5.663000000
O    -5.542000000    -7.838000000    -3.148000000
H    -5.240000000    -7.051000000    -2.695000000
H    -4.914000000    -7.960000000    -3.860000000
O    -5.586000000    -1.609000000     1.516000000
H    -5.170000000    -1.703000000     0.659000000
H    -6.429000000    -1.196000000     1.328000000
O    -2.020000000    -9.223000000    -1.103000000
H    -1.541000000    -8.752000000    -1.785000000
H    -2.186000000    -8.564000000    -0.428000000
O    -1.398000000    -7.690000000     1.323000000
H    -1.945000000    -7.228000000     0.688000000
H    -1.538000000    -7.222000000     2.146000000
O    -1.489000000    -3.994000000     1.406000000
H    -1.452000000    -3.116000000     1.784000000
H    -1.873000000    -3.866000000     0.538000000
O    -8.931000000    -3.765000000     0.569000000
H    -8.290000000    -4.380000000     0.925000000
H    -9.757000000    -4.248000000     0.576000000
O    -7.397000000    -5.585000000    -2.916000000
H    -6.942000000    -4.851000000    -2.501000000
H    -7.408000000    -5.364000000    -3.847000000
O    -5.295000000    -4.211000000     0.722000000
H    -5.477000000    -3.407000000     1.208000000
H    -4.463000000    -4.041000000     0.281000000
O    -2.920000000    -6.340000000    -0.457000000
H    -3.584000000    -6.416000000    -1.143000000
H    -2.735000000    -5.402000000    -0.406000000
O    -2.328000000    -1.610000000     2.606000000
H    -2.191000000    -0.879000000     2.003000000
H    -3.155000000    -1.407000000     3.044000000
O    -4.739000000    -4.805000000     4.081000000
H    -5.159000000    -4.465000000     3.292000000
H    -5.293000000    -5.537000000     4.352000000
O    -6.329000000    -3.119000000    -2.164000000
H    -5.840000000    -2.789000000    -1.410000000
H    -6.494000000    -2.344000000    -2.700000000
O    -4.497000000    -5.433000000    -2.378000000
H    -3.862000000    -4.797000000    -2.049000000
H    -5.177000000    -4.900000000    -2.790000000
O    -2.434000000    -3.840000000     5.435000000
H    -3.368000000    -3.935000000     5.246000000
H    -2.052000000    -3.541000000     4.610000000
O    -7.811000000    -0.971000000     0.589000000
H    -8.011000000    -1.904000000     0.504000000
H    -8.408000000    -0.541000000    -0.023000000
O    -2.122000000    -5.873000000     3.166000000
H    -2.964000000    -5.573000000     3.508000000
H    -1.782000000    -5.124000000     2.676000000
