215
-1453.68620
C    -1.607000000     3.428000000     4.001000000
H    -1.577000000     4.255000000     3.296000000
C    -0.546000000     2.547000000     4.202000000
C    -0.605000000     1.453000000     5.044000000
H     0.108000000     0.639000000     5.143000000
C     0.705000000     2.778000000     3.348000000
O     0.932000000     4.139000000     2.926000000
H     0.633000000     2.212000000     2.407000000
O     1.967000000     2.287000000     3.944000000
C     2.886000000     1.696000000     3.168000000
C     2.983000000     0.309000000     3.414000000
H     2.306000000    -0.105000000     4.157000000
C     3.788000000    -0.471000000     2.585000000
O     3.696000000    -1.844000000     2.727000000
C     4.612000000     0.161000000     1.638000000
C     5.440000000    -0.711000000     0.736000000
H     6.315000000    -0.168000000     0.374000000
C     4.732000000    -1.281000000    -0.473000000
C     4.782000000    -0.600000000    -1.705000000
H     5.320000000     0.342000000    -1.757000000
H     5.960000000    -1.405000000     1.400000000
C     4.610000000     1.524000000     1.539000000
H     5.215000000     2.048000000     0.803000000
C     3.731000000     2.311000000     2.216000000
C     3.653000000     3.760000000     1.973000000
H     4.576000000     4.046000000     1.464000000
H     3.564000000     4.392000000     2.859000000
C     2.510000000     4.031000000     1.050000000
C     2.677000000     4.036000000    -0.291000000
H     3.644000000     3.744000000    -0.695000000
C     1.289000000     4.345000000     1.566000000
C     0.223000000     4.444000000     0.627000000
H    -0.777000000     4.482000000     1.052000000
C     0.365000000     4.456000000    -0.735000000
O    -0.662000000     4.561000000    -1.608000000
C    -1.165000000     3.335000000    -2.313000000
C    -2.708000000     3.253000000    -2.295000000
C    -3.381000000     2.583000000    -3.312000000
H    -2.953000000     2.042000000    -4.151000000
C    -3.421000000     3.854000000    -1.258000000
H    -2.864000000     4.448000000    -0.539000000
O    -0.560000000     3.205000000    -3.636000000
H    -0.738000000     2.558000000    -1.663000000
C     1.667000000     4.237000000    -1.178000000
C     1.920000000     4.160000000    -2.633000000
H     2.955000000     4.426000000    -2.859000000
H     1.257000000     4.867000000    -3.136000000
C     1.733000000     2.732000000    -3.257000000
C     2.853000000     1.897000000    -3.473000000
H     3.828000000     2.240000000    -3.136000000
C     0.552000000     2.379000000    -3.795000000
C     0.412000000     1.125000000    -4.443000000
H    -0.495000000     0.720000000    -4.883000000
C     1.487000000     0.212000000    -4.512000000
O     1.243000000    -1.089000000    -4.911000000
C     1.179000000    -1.920000000    -3.739000000
C    -0.086000000    -2.690000000    -3.696000000
C    -1.148000000    -2.285000000    -4.495000000
H    -1.197000000    -1.373000000    -5.084000000
C    -0.259000000    -3.816000000    -2.937000000
H     0.565000000    -4.214000000    -2.350000000
O     2.373000000    -2.653000000    -3.590000000
H     1.126000000    -1.386000000    -2.779000000
C     2.716000000     0.591000000    -4.027000000
C     3.913000000    -0.268000000    -4.037000000
H     4.885000000     0.224000000    -4.106000000
H     3.907000000    -0.918000000    -4.914000000
C     3.971000000    -1.041000000    -2.751000000
C     3.237000000    -2.183000000    -2.625000000
C     3.278000000    -2.917000000    -1.421000000
H     2.602000000    -3.746000000    -1.227000000
C     4.043000000    -2.514000000    -0.411000000
O     3.785000000    -3.103000000     0.820000000
C     2.831000000    -2.516000000     1.759000000
H     2.171000000    -1.794000000     1.256000000
C     2.013000000    -3.562000000     2.342000000
C     1.284000000    -3.385000000     3.529000000
H     1.355000000    -2.397000000     3.978000000
C     1.908000000    -4.824000000     1.756000000
H     2.492000000    -5.109000000     0.885000000
C     1.012000000    -5.737000000     2.233000000
O     0.887000000    -6.955000000     1.614000000
C     0.223000000    -5.506000000     3.366000000
H    -0.407000000    -6.283000000     3.792000000
C     0.420000000    -4.311000000     4.046000000
O    -0.104000000    -4.208000000     5.308000000
C    -0.020000000    -3.044000000     6.088000000
C    -0.918000000    -2.050000000     5.888000000
H    -1.555000000    -2.021000000     5.008000000
C     0.776000000    -3.037000000     7.238000000
H     1.247000000    -3.957000000     7.574000000
C     0.763000000    -1.890000000     8.120000000
H     1.240000000    -1.851000000     9.096000000
C    -0.102000000    -0.789000000     7.835000000
H    -0.192000000     0.038000000     8.534000000
C    -0.909000000    -0.846000000     6.725000000
O    -1.924000000     0.141000000     6.602000000
C    -1.757000000     1.278000000     5.805000000
C    -2.833000000     2.121000000     5.636000000
H    -3.754000000     1.838000000     6.141000000
C    -2.815000000     3.121000000     4.659000000
O    -3.993000000     3.856000000     4.372000000
C    -4.265000000     4.576000000     3.304000000
C    -4.786000000     3.970000000     2.173000000
H    -5.029000000     2.911000000     2.132000000
C    -3.951000000     5.913000000     3.270000000
H    -3.421000000     6.241000000     4.160000000
C    -4.056000000     6.647000000     2.092000000
H    -3.459000000     7.553000000     2.031000000
C    -4.592000000     6.033000000     0.976000000
H    -4.436000000     6.465000000    -0.010000000
C    -5.022000000     4.731000000     1.039000000
O    -5.578000000     4.141000000    -0.103000000
C    -4.812000000     3.767000000    -1.217000000
C    -5.405000000     2.853000000    -2.065000000
H    -6.410000000     2.550000000    -1.782000000
C    -4.791000000     2.346000000    -3.211000000
O    -5.489000000     1.503000000    -4.022000000
C    -4.872000000     0.773000000    -5.029000000
C    -4.476000000    -0.560000000    -4.764000000
H    -4.732000000    -0.892000000    -3.761000000
C    -4.588000000     1.324000000    -6.283000000
H    -4.739000000     2.364000000    -6.560000000
C    -3.984000000     0.483000000    -7.230000000
H    -3.895000000     0.967000000    -8.199000000
C    -3.558000000    -0.800000000    -6.945000000
H    -3.127000000    -1.295000000    -7.812000000
C    -3.778000000    -1.324000000    -5.713000000
O    -3.345000000    -2.632000000    -5.439000000
C    -2.343000000    -3.000000000    -4.582000000
C    -2.509000000    -4.221000000    -3.869000000
H    -3.377000000    -4.874000000    -3.891000000
C    -1.497000000    -4.500000000    -2.976000000
O    -1.580000000    -5.609000000    -2.180000000
C    -0.551000000    -6.339000000    -1.663000000
C     0.059000000    -7.283000000    -2.451000000
H    -0.305000000    -7.338000000    -3.474000000
C     1.027000000    -8.122000000    -1.905000000
H     1.553000000    -8.780000000    -2.592000000
C     1.349000000    -7.967000000    -0.522000000
H     2.106000000    -8.663000000    -0.171000000
C     0.681000000    -7.051000000     0.261000000
C    -0.362000000    -6.287000000    -0.274000000
H    -0.987000000    -5.775000000     0.453000000
C    -0.578000000    -1.871000000     0.150000000
H    -0.357000000    -2.925000000    -0.001000000
C     0.389000000    -0.899000000    -0.174000000
H     1.330000000    -1.161000000    -0.651000000
C     0.064000000     0.420000000    -0.068000000
H     0.692000000     1.144000000    -0.496000000
C    -1.103000000     0.801000000     0.572000000
H    -1.365000000     1.842000000     0.746000000
C    -2.019000000    -0.129000000     0.960000000
H    -2.849000000     0.270000000     1.537000000
C    -1.785000000    -1.520000000     0.727000000
C    -2.730000000    -2.514000000     1.350000000
O    -3.529000000    -2.165000000     2.227000000
O    -2.690000000    -3.672000000     1.023000000
O    -5.022000000    -1.118000000     6.697000000
H    -5.049000000    -1.477000000     5.810000000
H    -4.808000000    -1.868000000     7.253000000
O    -8.554000000    -3.024000000     1.391000000
H    -8.621000000    -2.239000000     0.848000000
H    -7.656000000    -3.329000000     1.262000000
O    -4.671000000    -4.088000000     3.828000000
H    -5.325000000    -3.479000000     4.172000000
H    -4.206000000    -3.586000000     3.158000000
O    -2.843000000    -5.881000000     5.370000000
H    -2.914000000    -6.008000000     4.424000000
H    -2.265000000    -5.124000000     5.467000000
O    -3.867000000    -0.440000000     3.976000000
H    -3.646000000    -1.162000000     3.388000000
H    -3.131000000    -0.393000000     4.585000000
O    -7.485000000     0.908000000     2.882000000
H    -8.219000000     1.517000000     2.806000000
H    -7.102000000     1.100000000     3.738000000
O    -6.502000000    -2.056000000     3.926000000
H    -6.869000000    -1.280000000     4.350000000
H    -7.124000000    -2.263000000     3.228000000
O    -6.037000000     0.663000000     5.098000000
H    -6.062000000     0.170000000     5.918000000
H    -5.264000000     0.330000000     4.642000000
O    -8.782000000    -0.264000000    -0.596000000
H    -7.981000000     0.093000000    -0.213000000
H    -8.603000000    -0.299000000    -1.536000000
O    -6.030000000    -6.864000000     2.705000000
H    -5.902000000    -6.621000000     3.622000000
H    -5.287000000    -6.471000000     2.248000000
O    -4.624000000    -4.646000000    -0.680000000
H    -4.227000000    -5.263000000    -1.295000000
H    -3.897000000    -4.357000000    -0.128000000
O    -3.021000000    -5.897000000     2.693000000
H    -2.783000000    -5.384000000     1.920000000
H    -3.694000000    -5.375000000     3.129000000
O    -4.317000000    -3.629000000     7.296000000
H    -4.537000000    -3.938000000     8.175000000
H    -4.207000000    -4.429000000     6.781000000
O    -4.940000000    -6.516000000    -2.871000000
H    -5.285000000    -6.004000000    -3.603000000
H    -5.711000000    -6.928000000    -2.482000000
O    -7.210000000    -4.688000000    -1.311000000
H    -7.588000000    -5.031000000    -0.502000000
H    -6.308000000    -4.466000000    -1.079000000
O    -5.884000000    -2.657000000     0.906000000
H    -5.073000000    -2.427000000     1.359000000
H    -5.609000000    -3.258000000     0.213000000
O    -3.585000000    -8.885000000    -2.189000000
H    -3.007000000    -8.560000000    -1.499000000
H    -4.082000000    -8.116000000    -2.466000000
O    -4.430000000    -8.020000000     5.818000000
H    -4.029000000    -7.155000000     5.732000000
H    -5.335000000    -7.840000000     6.074000000
O    -6.404000000     0.010000000     0.604000000
H    -6.339000000     0.393000000     1.479000000
H    -6.327000000    -0.933000000     0.750000000
