215
-1450.46894
C     4.187000000     2.178000000    -2.116000000
H     4.208000000     1.454000000    -2.926000000
C     4.346000000     1.653000000    -0.838000000
C     4.413000000     2.645000000     0.210000000
H     4.476000000     2.297000000     1.238000000
C     4.270000000     0.090000000    -0.520000000
O     4.848000000    -0.660000000    -1.599000000
H     3.187000000    -0.097000000    -0.499000000
O     4.897000000    -0.086000000     0.795000000
C     4.213000000    -0.825000000     1.681000000
C     3.521000000    -0.187000000     2.711000000
H     3.683000000     0.860000000     2.954000000
C     2.716000000    -0.914000000     3.555000000
O     2.034000000    -0.114000000     4.462000000
C     2.571000000    -2.259000000     3.368000000
C     1.625000000    -3.058000000     4.287000000
H     1.916000000    -4.110000000     4.295000000
C     0.135000000    -3.033000000     3.788000000
C    -0.377000000    -4.024000000     2.914000000
H     0.214000000    -4.893000000     2.637000000
H     1.757000000    -2.733000000     5.321000000
C     3.263000000    -2.943000000     2.391000000
H     3.055000000    -4.001000000     2.256000000
C     4.111000000    -2.209000000     1.452000000
C     4.807000000    -2.949000000     0.280000000
H     4.989000000    -3.973000000     0.612000000
H     5.750000000    -2.400000000     0.232000000
C     4.011000000    -2.875000000    -0.977000000
C     3.041000000    -3.841000000    -1.163000000
H     2.939000000    -4.699000000    -0.504000000
C     4.134000000    -1.812000000    -1.893000000
C     3.242000000    -1.727000000    -2.936000000
H     3.436000000    -0.974000000    -3.695000000
C     2.241000000    -2.632000000    -3.065000000
O     1.374000000    -2.386000000    -4.087000000
C     0.007000000    -1.978000000    -3.759000000
C    -0.416000000    -0.896000000    -4.724000000
C    -1.818000000    -0.584000000    -4.818000000
H    -2.493000000    -1.140000000    -4.173000000
C     0.511000000    -0.067000000    -5.417000000
H     1.568000000    -0.321000000    -5.414000000
O    -0.904000000    -3.121000000    -3.802000000
H    -0.009000000    -1.541000000    -2.750000000
C     2.173000000    -3.677000000    -2.149000000
C     1.112000000    -4.709000000    -2.364000000
H     1.504000000    -5.663000000    -2.003000000
H     1.073000000    -4.861000000    -3.445000000
C    -0.273000000    -4.453000000    -1.856000000
C    -0.646000000    -4.875000000    -0.563000000
H     0.034000000    -5.525000000    -0.018000000
C    -1.171000000    -3.706000000    -2.564000000
C    -2.318000000    -3.260000000    -1.938000000
H    -3.032000000    -2.562000000    -2.367000000
C    -2.701000000    -3.646000000    -0.664000000
O    -3.861000000    -3.146000000    -0.130000000
C    -3.714000000    -2.153000000     0.887000000
C    -4.820000000    -1.074000000     0.780000000
C    -5.207000000    -0.728000000    -0.525000000
H    -4.839000000    -1.276000000    -1.389000000
C    -5.084000000    -0.203000000     1.798000000
H    -4.641000000    -0.391000000     2.773000000
O    -3.715000000    -2.780000000     2.229000000
H    -2.778000000    -1.578000000     0.834000000
C    -1.857000000    -4.507000000     0.023000000
C    -2.227000000    -5.023000000     1.414000000
H    -1.896000000    -6.051000000     1.573000000
H    -3.315000000    -5.070000000     1.497000000
C    -1.702000000    -3.997000000     2.447000000
C    -2.469000000    -2.922000000     2.843000000
C    -1.943000000    -1.866000000     3.564000000
H    -2.499000000    -0.939000000     3.682000000
C    -0.654000000    -1.876000000     4.087000000
O    -0.184000000    -0.827000000     4.840000000
C     0.653000000     0.121000000     4.175000000
H     0.470000000    -0.032000000     3.102000000
C     0.259000000     1.580000000     4.411000000
C     1.269000000     2.536000000     4.540000000
H     2.317000000     2.309000000     4.363000000
C    -1.088000000     2.021000000     4.338000000
H    -1.867000000     1.270000000     4.231000000
C    -1.426000000     3.338000000     4.473000000
O    -2.719000000     3.812000000     4.500000000
C    -0.375000000     4.214000000     4.792000000
H    -0.790000000     5.189000000     5.035000000
C     0.946000000     3.865000000     4.720000000
O     1.917000000     4.711000000     5.052000000
C     3.160000000     4.625000000     4.371000000
C     3.164000000     4.847000000     2.999000000
H     2.203000000     4.943000000     2.501000000
C     4.344000000     4.575000000     5.082000000
H     4.392000000     4.544000000     6.167000000
C     5.555000000     4.599000000     4.358000000
H     6.479000000     4.498000000     4.921000000
C     5.545000000     4.636000000     2.951000000
H     6.509000000     4.689000000     2.451000000
C     4.329000000     4.763000000     2.235000000
O     4.206000000     4.912000000     0.903000000
C     4.224000000     3.987000000    -0.080000000
C     4.084000000     4.496000000    -1.432000000
H     3.887000000     5.552000000    -1.597000000
C     3.968000000     3.535000000    -2.430000000
O     3.784000000     4.035000000    -3.668000000
C     3.618000000     3.173000000    -4.721000000
C     2.323000000     2.906000000    -5.179000000
H     1.519000000     3.404000000    -4.642000000
C     4.663000000     2.424000000    -5.276000000
H     5.682000000     2.559000000    -4.922000000
C     4.466000000     1.661000000    -6.401000000
H     5.264000000     1.187000000    -6.966000000
C     3.151000000     1.473000000    -6.892000000
H     2.974000000     0.895000000    -7.795000000
C     2.078000000     2.104000000    -6.281000000
O     0.858000000     1.908000000    -6.711000000
C     0.041000000     0.988000000    -6.139000000
C    -1.323000000     1.133000000    -6.315000000
H    -1.626000000     2.022000000    -6.862000000
C    -2.273000000     0.460000000    -5.592000000
O    -3.566000000     0.698000000    -5.770000000
C    -4.563000000     0.118000000    -5.041000000
C    -4.881000000     0.722000000    -3.822000000
H    -4.194000000     1.479000000    -3.454000000
C    -5.339000000    -0.808000000    -5.680000000
H    -5.063000000    -1.179000000    -6.664000000
C    -6.417000000    -1.412000000    -5.003000000
H    -7.003000000    -2.199000000    -5.472000000
C    -6.749000000    -0.915000000    -3.716000000
H    -7.572000000    -1.311000000    -3.126000000
C    -5.938000000     0.126000000    -3.149000000
O    -6.456000000     0.738000000    -2.030000000
C    -6.062000000     0.342000000    -0.732000000
C    -6.581000000     1.008000000     0.301000000
H    -7.302000000     1.807000000     0.151000000
C    -6.012000000     0.822000000     1.532000000
O    -6.422000000     1.688000000     2.491000000
C    -5.622000000     1.826000000     3.595000000
C    -5.851000000     1.168000000     4.786000000
H    -6.712000000     0.526000000     4.952000000
C    -5.008000000     1.413000000     5.912000000
H    -5.140000000     0.896000000     6.859000000
C    -4.049000000     2.370000000     5.845000000
H    -3.370000000     2.635000000     6.651000000
C    -3.807000000     3.001000000     4.593000000
C    -4.620000000     2.773000000     3.510000000
H    -4.478000000     3.392000000     2.628000000
C    -2.325000000     1.484000000    -0.508000000
H    -3.321000000     1.370000000    -0.930000000
C    -1.419000000     0.528000000    -0.905000000
H    -1.777000000    -0.264000000    -1.559000000
C    -0.124000000     0.614000000    -0.477000000
H     0.537000000    -0.200000000    -0.600000000
C     0.209000000     1.705000000     0.330000000
H     1.242000000     1.685000000     0.669000000
C    -0.658000000     2.755000000     0.601000000
H    -0.217000000     3.708000000     0.884000000
C    -1.958000000     2.630000000     0.197000000
C    -2.812000000     3.841000000     0.411000000
O    -2.413000000     4.728000000     1.050000000
O    -3.659000000     3.962000000    -0.450000000
O     0.118000000     8.973000000    -1.759000000
H     0.535000000     8.175000000    -1.435000000
H     0.276000000     9.621000000    -1.072000000
O    -2.304000000     7.140000000    -0.222000000
H    -1.718000000     7.620000000     0.363000000
H    -2.452000000     6.304000000     0.221000000
O    -3.960000000     6.048000000     2.964000000
H    -3.363000000     5.302000000     2.912000000
H    -4.376000000     6.084000000     2.103000000
O    -3.902000000     4.123000000    -4.744000000
H    -3.292000000     4.172000000    -4.007000000
H    -4.671000000     3.678000000    -4.388000000
O    -5.507000000     3.522000000    -2.209000000
H    -4.963000000     3.619000000    -1.428000000
H    -6.033000000     2.740000000    -2.038000000
O    -2.296000000     4.562000000    -2.721000000
H    -2.687000000     4.758000000    -1.869000000
H    -1.362000000     4.464000000    -2.539000000
O    -6.257000000     5.949000000    -2.933000000
H    -5.954000000     5.097000000    -2.620000000
H    -5.455000000     6.437000000    -3.117000000
O    -2.500000000     9.770000000    -2.182000000
H    -3.009000000     8.960000000    -2.141000000
H    -1.593000000     9.488000000    -2.067000000
O    -8.003000000     6.265000000     0.923000000
H    -8.842000000     5.871000000     0.683000000
H    -8.156000000     6.646000000     1.788000000
O    -5.172000000     8.807000000     0.264000000
H    -5.590000000     7.957000000     0.401000000
H    -4.239000000     8.638000000     0.391000000
O    -7.329000000     7.106000000     3.498000000
H    -7.879000000     7.880000000     3.377000000
H    -6.476000000     7.456000000     3.755000000
O    -3.557000000     7.267000000    -2.627000000
H    -3.300000000     7.207000000    -1.707000000
H    -3.155000000     6.502000000    -3.039000000
O    -5.325000000     6.138000000     0.536000000
H    -5.073000000     5.270000000     0.221000000
H    -6.280000000     6.104000000     0.593000000
O    -3.007000000     8.596000000     2.041000000
H    -2.916000000     8.851000000     2.959000000
H    -3.351000000     7.703000000     2.073000000
O     1.056000000     6.831000000    -0.147000000
H     0.511000000     6.288000000     0.423000000
H     1.482000000     7.449000000     0.447000000
O    -0.497000000     6.261000000     1.948000000
H    -1.106000000     5.572000000     1.681000000
H    -1.056000000     6.943000000     2.320000000
O    -5.000000000     7.811000000     4.787000000
H    -4.576000000     7.135000000     4.258000000
H    -5.265000000     7.358000000     5.587000000
O    -8.397000000     4.187000000    -2.078000000
H    -7.935000000     4.926000000    -2.474000000
H    -9.030000000     4.591000000    -1.484000000
O     0.450000000     5.280000000    -2.607000000
H     1.318000000     5.513000000    -2.937000000
H     0.406000000     5.685000000    -1.741000000
