215
-1435.01843
C    -0.595000000     4.004000000     2.832000000
H    -0.724000000     4.458000000     1.852000000
C     0.731000000     3.551000000     3.186000000
C     0.967000000     3.060000000     4.427000000
H     1.917000000     2.547000000     4.561000000
C     1.792000000     3.438000000     2.069000000
O     1.783000000     4.557000000     1.158000000
H     1.597000000     2.606000000     1.377000000
O     3.106000000     3.102000000     2.552000000
C     3.715000000     2.133000000     1.900000000
C     3.499000000     0.867000000     2.444000000
H     2.844000000     0.651000000     3.284000000
C     4.132000000    -0.257000000     1.857000000
O     3.889000000    -1.429000000     2.461000000
C     4.730000000    -0.119000000     0.616000000
C     5.349000000    -1.310000000    -0.088000000
H     6.233000000    -0.973000000    -0.632000000
C     4.253000000    -1.949000000    -0.916000000
C     4.106000000    -1.654000000    -2.250000000
H     4.774000000    -0.914000000    -2.684000000
H     5.717000000    -1.992000000     0.680000000
C     4.936000000     1.154000000     0.079000000
H     5.540000000     1.192000000    -0.824000000
C     4.459000000     2.367000000     0.689000000
C     4.400000000     3.701000000    -0.066000000
H     5.215000000     3.722000000    -0.793000000
H     4.424000000     4.480000000     0.699000000
C     3.092000000     3.913000000    -0.819000000
C     2.982000000     3.602000000    -2.161000000
H     3.851000000     3.306000000    -2.743000000
C     1.929000000     4.333000000    -0.223000000
C     0.650000000     4.334000000    -0.898000000
H    -0.234000000     4.596000000    -0.322000000
C     0.632000000     4.013000000    -2.210000000
O    -0.557000000     3.918000000    -2.868000000
C    -1.331000000     2.718000000    -2.935000000
C    -2.871000000     2.964000000    -2.714000000
C    -3.806000000     2.022000000    -3.161000000
H    -3.360000000     1.115000000    -3.561000000
C    -3.305000000     4.151000000    -2.074000000
H    -2.707000000     5.013000000    -1.791000000
O    -1.148000000     2.139000000    -4.256000000
H    -0.931000000     1.998000000    -2.206000000
C     1.773000000     3.534000000    -2.825000000
C     1.693000000     3.037000000    -4.229000000
H     2.612000000     3.150000000    -4.808000000
H     1.030000000     3.720000000    -4.764000000
C     1.228000000     1.559000000    -4.428000000
C     2.220000000     0.513000000    -4.607000000
H     3.267000000     0.797000000    -4.665000000
C    -0.142000000     1.216000000    -4.377000000
C    -0.433000000    -0.149000000    -4.390000000
H    -1.466000000    -0.487000000    -4.435000000
C     0.498000000    -1.168000000    -4.544000000
O    -0.009000000    -2.413000000    -4.470000000
C     0.111000000    -3.006000000    -3.204000000
C    -1.028000000    -3.893000000    -2.856000000
C    -2.268000000    -3.306000000    -3.109000000
H    -2.369000000    -2.303000000    -3.517000000
C    -0.888000000    -5.073000000    -2.109000000
H     0.100000000    -5.491000000    -1.933000000
O     1.340000000    -3.813000000    -3.141000000
H     0.243000000    -2.249000000    -2.417000000
C     1.857000000    -0.806000000    -4.645000000
C     2.915000000    -1.878000000    -4.524000000
H     3.829000000    -1.551000000    -5.024000000
H     2.665000000    -2.734000000    -5.155000000
C     3.098000000    -2.284000000    -3.037000000
C     2.328000000    -3.280000000    -2.458000000
C     2.582000000    -3.660000000    -1.120000000
H     2.101000000    -4.481000000    -0.596000000
C     3.530000000    -2.975000000    -0.355000000
O     3.587000000    -3.248000000     1.020000000
C     2.897000000    -2.259000000     1.776000000
H     2.353000000    -1.607000000     1.078000000
C     1.978000000    -2.817000000     2.880000000
C     2.044000000    -2.414000000     4.241000000
H     2.902000000    -1.854000000     4.603000000
C     1.029000000    -3.798000000     2.493000000
H     1.013000000    -4.117000000     1.454000000
C     0.082000000    -4.245000000     3.390000000
O    -1.071000000    -4.832000000     2.928000000
C     0.119000000    -3.772000000     4.713000000
H    -0.795000000    -3.848000000     5.297000000
C     1.139000000    -2.923000000     5.127000000
O     1.115000000    -2.411000000     6.444000000
C     1.525000000    -1.073000000     6.776000000
C     0.579000000    -0.078000000     6.441000000
H    -0.370000000    -0.404000000     6.024000000
C     2.698000000    -0.815000000     7.400000000
H     3.338000000    -1.690000000     7.491000000
C     3.026000000     0.484000000     7.551000000
H     4.027000000     0.680000000     7.928000000
C     2.159000000     1.519000000     7.266000000
H     2.522000000     2.533000000     7.410000000
C     0.900000000     1.226000000     6.693000000
O     0.005000000     2.213000000     6.575000000
C    -0.079000000     3.006000000     5.415000000
C    -1.347000000     3.542000000     5.119000000
H    -2.215000000     3.201000000     5.678000000
C    -1.571000000     4.008000000     3.834000000
O    -2.871000000     4.377000000     3.533000000
C    -3.282000000     5.181000000     2.458000000
C    -4.060000000     4.701000000     1.378000000
H    -4.405000000     3.672000000     1.439000000
C    -2.900000000     6.531000000     2.480000000
H    -2.363000000     6.952000000     3.326000000
C    -3.280000000     7.328000000     1.368000000
H    -2.912000000     8.351000000     1.390000000
C    -4.016000000     6.837000000     0.313000000
H    -4.532000000     7.471000000    -0.403000000
C    -4.440000000     5.496000000     0.302000000
O    -5.141000000     5.092000000    -0.808000000
C    -4.693000000     4.168000000    -1.723000000
C    -5.620000000     3.201000000    -2.164000000
H    -6.611000000     3.347000000    -1.743000000
C    -5.196000000     2.152000000    -2.892000000
O    -6.118000000     1.161000000    -3.259000000
C    -5.662000000    -0.029000000    -3.833000000
C    -5.371000000    -1.177000000    -2.982000000
H    -5.428000000    -1.082000000    -1.901000000
C    -5.493000000    -0.077000000    -5.213000000
H    -5.625000000     0.768000000    -5.884000000
C    -4.979000000    -1.228000000    -5.745000000
H    -4.742000000    -1.339000000    -6.800000000
C    -4.713000000    -2.388000000    -4.954000000
H    -4.379000000    -3.350000000    -5.333000000
C    -4.927000000    -2.270000000    -3.569000000
O    -4.684000000    -3.355000000    -2.721000000
C    -3.413000000    -3.977000000    -2.659000000
C    -3.305000000    -5.212000000    -1.998000000
H    -4.188000000    -5.732000000    -1.635000000
C    -2.050000000    -5.786000000    -1.724000000
O    -1.960000000    -6.995000000    -1.183000000
C    -1.506000000    -7.029000000     0.097000000
C    -0.934000000    -8.170000000     0.527000000
H    -0.994000000    -9.039000000    -0.124000000
C    -0.360000000    -8.202000000     1.786000000
H    -0.034000000    -9.148000000     2.211000000
C    -0.283000000    -7.092000000     2.576000000
H     0.115000000    -7.053000000     3.587000000
C    -0.907000000    -5.937000000     2.163000000
C    -1.527000000    -5.937000000     0.935000000
H    -1.948000000    -4.988000000     0.610000000
C    -1.640000000    -1.471000000     0.699000000
H    -2.134000000    -2.404000000     0.956000000
C    -0.411000000    -1.552000000     0.145000000
H     0.062000000    -2.514000000    -0.036000000
C     0.256000000    -0.407000000    -0.212000000
H     1.138000000    -0.591000000    -0.876000000
C    -0.297000000     0.865000000    -0.019000000
H     0.132000000     1.831000000    -0.276000000
C    -1.585000000     0.922000000     0.604000000
H    -2.170000000     1.838000000     0.633000000
C    -2.256000000    -0.226000000     0.934000000
C    -3.728000000    -0.302000000     1.263000000
O    -4.434000000     0.664000000     1.239000000
O    -4.245000000    -1.284000000     1.786000000
O    -8.100000000    -0.720000000    -0.960000000
H    -7.379000000    -0.178000000    -0.643000000
H    -8.288000000    -0.381000000    -1.836000000
O    -3.785000000    -0.476000000     5.573000000
H    -3.803000000    -0.185000000     6.485000000
H    -3.416000000     0.264000000     5.092000000
O    -9.405000000    -0.562000000     4.391000000
H    -8.783000000    -0.621000000     3.665000000
H   -10.252000000    -0.417000000     3.970000000
O    -6.141000000     2.599000000     6.646000000
H    -5.758000000     2.533000000     5.771000000
H    -5.891000000     1.784000000     7.079000000
O    -7.082000000    -0.036000000     2.663000000
H    -6.887000000     0.896000000     2.557000000
H    -6.390000000    -0.482000000     2.174000000
O    -4.280000000     1.794000000     3.723000000
H    -4.559000000     1.457000000     2.872000000
H    -4.114000000     2.724000000     3.569000000
O    -7.690000000     3.775000000     1.443000000
H    -8.415000000     3.691000000     2.062000000
H    -7.591000000     4.718000000     1.316000000
O    -6.102000000     4.284000000     4.310000000
H    -5.928000000     4.872000000     3.575000000
H    -6.028000000     4.841000000     5.085000000
O    -8.771000000    -2.164000000     1.557000000
H    -8.218000000    -1.554000000     2.044000000
H    -8.803000000    -1.804000000     0.671000000
O    -5.654000000    -5.924000000     1.127000000
H    -5.477000000    -6.206000000     2.025000000
H    -5.246000000    -5.061000000     1.062000000
O    -4.913000000    -5.676000000     4.106000000
H    -5.426000000    -5.893000000     4.884000000
H    -4.596000000    -4.788000000     4.267000000
O    -5.516000000    -3.349000000     0.355000000
H    -4.816000000    -2.865000000     0.793000000
H    -6.321000000    -3.025000000     0.759000000
O   -10.083000000     1.522000000     0.513000000
H    -9.277000000     1.121000000     0.188000000
H   -10.759000000     0.861000000     0.359000000
O    -6.720000000    -0.172000000     5.617000000
H    -5.786000000    -0.252000000     5.421000000
H    -7.157000000    -0.394000000     4.795000000
O    -4.839000000    -2.740000000     8.311000000
H    -5.715000000    -2.872000000     7.948000000
H    -4.428000000    -2.108000000     7.722000000
O    -4.487000000    -2.579000000     3.964000000
H    -4.333000000    -2.047000000     3.184000000
H    -4.251000000    -2.008000000     4.695000000
O    -7.663000000    -3.460000000    -1.458000000
H    -7.923000000    -2.580000000    -1.184000000
H    -6.739000000    -3.524000000    -1.216000000
O    -6.907000000     1.436000000     0.155000000
H    -5.994000000     1.375000000     0.437000000
H    -7.231000000     2.238000000     0.563000000
O    -7.266000000    -0.295000000     8.081000000
H    -7.779000000    -1.089000000     7.927000000
H    -7.040000000     0.017000000     7.205000000
