215
-1474.89954
C    -0.536000000     4.663000000     2.593000000
H    -0.538000000     5.260000000     1.685000000
C     0.479000000     3.763000000     2.826000000
C     0.429000000     2.974000000     3.952000000
H     1.118000000     2.137000000     4.032000000
C     1.505000000     3.558000000     1.759000000
O     1.764000000     4.700000000     0.860000000
H     1.262000000     2.630000000     1.222000000
O     2.779000000     3.194000000     2.385000000
C     3.479000000     2.104000000     1.886000000
C     3.445000000     0.909000000     2.610000000
H     2.826000000     0.864000000     3.503000000
C     4.101000000    -0.190000000     2.041000000
O     3.950000000    -1.399000000     2.599000000
C     4.835000000    -0.123000000     0.871000000
C     5.398000000    -1.352000000     0.260000000
H     6.248000000    -1.151000000    -0.396000000
C     4.366000000    -2.012000000    -0.561000000
C     4.235000000    -1.736000000    -1.938000000
H     4.880000000    -0.978000000    -2.375000000
H     5.764000000    -1.977000000     1.077000000
C     4.810000000     1.078000000     0.159000000
H     5.308000000     1.132000000    -0.806000000
C     4.127000000     2.187000000     0.642000000
C     4.151000000     3.484000000    -0.151000000
H     4.992000000     3.537000000    -0.845000000
H     4.266000000     4.333000000     0.527000000
C     2.856000000     3.669000000    -0.998000000
C     2.902000000     3.420000000    -2.378000000
H     3.755000000     2.959000000    -2.869000000
C     1.790000000     4.358000000    -0.465000000
C     0.653000000     4.532000000    -1.269000000
H    -0.250000000     4.825000000    -0.739000000
C     0.627000000     4.042000000    -2.573000000
O    -0.634000000     3.996000000    -3.187000000
C    -1.209000000     2.653000000    -3.159000000
C    -2.659000000     2.561000000    -2.750000000
C    -3.412000000     1.404000000    -2.965000000
H    -3.092000000     0.614000000    -3.639000000
C    -3.177000000     3.592000000    -1.941000000
H    -2.614000000     4.501000000    -1.744000000
O    -1.029000000     2.069000000    -4.431000000
H    -0.729000000     2.080000000    -2.353000000
C     1.777000000     3.508000000    -3.176000000
C     1.772000000     3.024000000    -4.583000000
H     2.785000000     3.097000000    -4.983000000
H     1.106000000     3.523000000    -5.290000000
C     1.398000000     1.577000000    -4.588000000
C     2.328000000     0.556000000    -4.444000000
H     3.391000000     0.779000000    -4.477000000
C     0.029000000     1.193000000    -4.570000000
C    -0.325000000    -0.138000000    -4.396000000
H    -1.353000000    -0.492000000    -4.390000000
C     0.646000000    -1.155000000    -4.342000000
O     0.219000000    -2.455000000    -4.152000000
C     0.173000000    -3.019000000    -2.843000000
C    -1.101000000    -3.866000000    -2.732000000
C    -2.246000000    -3.897000000    -3.575000000
H    -2.229000000    -3.376000000    -4.529000000
C    -1.222000000    -4.517000000    -1.530000000
H    -0.443000000    -4.403000000    -0.781000000
O     1.301000000    -3.814000000    -2.690000000
H     0.182000000    -2.321000000    -1.992000000
C     1.984000000    -0.771000000    -4.327000000
C     3.075000000    -1.817000000    -4.195000000
H     4.102000000    -1.543000000    -4.445000000
H     2.894000000    -2.635000000    -4.896000000
C     3.171000000    -2.283000000    -2.746000000
C     2.339000000    -3.221000000    -2.067000000
C     2.637000000    -3.654000000    -0.807000000
H     2.008000000    -4.420000000    -0.360000000
C     3.554000000    -3.014000000    -0.015000000
O     3.559000000    -3.326000000     1.269000000
C     3.042000000    -2.329000000     2.170000000
H     2.228000000    -1.776000000     1.678000000
C     2.339000000    -2.939000000     3.395000000
C     2.096000000    -2.273000000     4.570000000
H     2.524000000    -1.291000000     4.758000000
C     1.748000000    -4.213000000     3.251000000
H     1.832000000    -4.720000000     2.293000000
C     0.907000000    -4.742000000     4.216000000
O     0.261000000    -5.965000000     4.020000000
C     0.599000000    -4.005000000     5.305000000
H    -0.186000000    -4.384000000     5.954000000
C     1.309000000    -2.819000000     5.576000000
O     1.140000000    -2.185000000     6.776000000
C     1.109000000    -0.750000000     6.844000000
C     0.023000000    -0.087000000     6.333000000
H    -0.814000000    -0.647000000     5.924000000
C     2.228000000    -0.108000000     7.347000000
H     3.097000000    -0.653000000     7.707000000
C     2.177000000     1.280000000     7.446000000
H     2.994000000     1.860000000     7.869000000
C     1.036000000     1.983000000     6.942000000
H     0.992000000     3.059000000     7.088000000
C    -0.005000000     1.307000000     6.350000000
O    -0.980000000     2.028000000     5.640000000
C    -0.764000000     3.057000000     4.708000000
C    -1.627000000     4.173000000     4.639000000
H    -2.502000000     4.187000000     5.284000000
C    -1.525000000     4.939000000     3.499000000
O    -2.357000000     6.035000000     3.247000000
C    -3.010000000     6.194000000     2.011000000
C    -3.708000000     5.205000000     1.432000000
H    -3.810000000     4.210000000     1.857000000
C    -2.996000000     7.511000000     1.515000000
H    -2.577000000     8.266000000     2.176000000
C    -3.627000000     7.741000000     0.312000000
H    -3.517000000     8.746000000    -0.089000000
C    -4.271000000     6.681000000    -0.435000000
H    -4.763000000     6.863000000    -1.386000000
C    -4.329000000     5.433000000     0.174000000
O    -4.919000000     4.400000000    -0.425000000
C    -4.370000000     3.471000000    -1.255000000
C    -5.178000000     2.376000000    -1.469000000
H    -6.152000000     2.166000000    -1.034000000
C    -4.694000000     1.366000000    -2.357000000
O    -5.418000000     0.209000000    -2.482000000
C    -5.307000000    -0.725000000    -3.454000000
C    -5.134000000    -2.034000000    -3.158000000
H    -4.986000000    -2.238000000    -2.101000000
C    -5.503000000    -0.328000000    -4.787000000
H    -5.660000000     0.719000000    -5.034000000
C    -5.542000000    -1.298000000    -5.791000000
H    -5.740000000    -1.006000000    -6.819000000
C    -5.317000000    -2.642000000    -5.501000000
H    -5.252000000    -3.341000000    -6.331000000
C    -5.066000000    -2.999000000    -4.190000000
O    -4.625000000    -4.310000000    -3.961000000
C    -3.461000000    -4.469000000    -3.206000000
C    -3.494000000    -5.186000000    -2.020000000
H    -4.430000000    -5.665000000    -1.743000000
C    -2.373000000    -5.266000000    -1.175000000
O    -2.494000000    -5.960000000     0.052000000
C    -1.442000000    -6.541000000     0.723000000
C    -0.695000000    -7.611000000     0.218000000
H    -0.904000000    -7.933000000    -0.799000000
C     0.450000000    -8.047000000     0.869000000
H     1.124000000    -8.785000000     0.441000000
C     0.751000000    -7.590000000     2.187000000
H     1.586000000    -7.972000000     2.770000000
C    -0.028000000    -6.534000000     2.729000000
C    -1.096000000    -5.997000000     1.960000000
H    -1.632000000    -5.154000000     2.389000000
C    -1.165000000    -1.118000000     0.914000000
H    -1.184000000    -2.197000000     1.038000000
C    -0.033000000    -0.568000000     0.258000000
H     0.699000000    -1.272000000    -0.129000000
C     0.023000000     0.775000000     0.051000000
H     0.827000000     1.292000000    -0.447000000
C    -0.966000000     1.670000000     0.596000000
H    -0.859000000     2.733000000     0.391000000
C    -2.036000000     1.023000000     1.272000000
H    -2.849000000     1.627000000     1.667000000
C    -2.111000000    -0.318000000     1.468000000
C    -3.332000000    -0.922000000     2.109000000
O    -4.072000000    -0.201000000     2.755000000
O    -3.556000000    -2.136000000     2.048000000
O    -6.194000000    -1.856000000     0.141000000
H    -5.575000000    -2.525000000     0.431000000
H    -5.760000000    -1.026000000     0.338000000
O    -3.494000000    -1.632000000     7.067000000
H    -3.115000000    -1.490000000     7.934000000
H    -3.414000000    -0.784000000     6.629000000
O    -4.442000000     1.893000000     7.833000000
H    -4.908000000     1.321000000     8.442000000
H    -4.375000000     1.382000000     7.026000000
O    -6.004000000    -1.622000000     4.103000000
H    -6.116000000    -2.339000000     3.478000000
H    -5.600000000    -0.920000000     3.592000000
O    -2.550000000    -5.369000000     6.035000000
H    -3.148000000    -5.239000000     6.771000000
H    -2.625000000    -4.566000000     5.520000000
O    -3.382000000     0.581000000     5.343000000
H    -3.644000000     0.261000000     4.479000000
H    -2.537000000     1.006000000     5.194000000
O    -8.194000000     3.525000000     1.134000000
H    -7.388000000     3.018000000     1.232000000
H    -8.569000000     3.222000000     0.307000000
O    -5.948000000     3.647000000     4.328000000
H    -6.249000000     4.405000000     3.827000000
H    -5.470000000     4.024000000     5.067000000
O    -8.541000000    -3.437000000     1.460000000
H    -7.881000000    -3.838000000     0.894000000
H    -9.113000000    -2.958000000     0.860000000
O    -3.867000000    -7.192000000     3.537000000
H    -4.357000000    -6.394000000     3.336000000
H    -3.298000000    -6.947000000     4.266000000
O    -8.736000000    -0.865000000    -0.534000000
H    -8.660000000    -0.567000000    -1.441000000
H    -7.871000000    -1.217000000    -0.324000000
O    -5.327000000    -5.054000000     3.779000000
H    -5.822000000    -5.316000000     4.555000000
H    -4.631000000    -4.492000000     4.117000000
O    -4.761000000    -4.096000000     0.981000000
H    -4.089000000    -3.485000000     1.283000000
H    -4.956000000    -4.636000000     1.747000000
O    -6.114000000    -2.882000000     6.499000000
H    -6.255000000    -2.624000000     5.588000000
H    -5.333000000    -2.397000000     6.767000000
O    -3.274000000    -3.121000000     4.471000000
H    -3.604000000    -2.579000000     3.754000000
H    -3.227000000    -2.526000000     5.219000000
O    -7.205000000    -4.785000000    -1.060000000
H    -6.444000000    -4.218000000    -0.939000000
H    -7.551000000    -4.541000000    -1.919000000
O    -6.092000000     1.464000000     1.508000000
H    -5.382000000     0.839000000     1.659000000
H    -6.021000000     2.086000000     2.232000000
O    -7.387000000     1.344000000     5.273000000
H    -7.457000000     0.716000000     4.554000000
H    -6.800000000     2.024000000     4.942000000
O    -8.470000000     0.598000000     2.371000000
H    -7.739000000     0.822000000     1.796000000
H    -9.211000000     0.469000000     1.778000000
