215
-1464.18534
C     0.014000000     4.824000000     2.709000000
H     0.362000000     5.592000000     2.024000000
C     0.917000000     3.835000000     3.080000000
C     0.591000000     2.956000000     4.186000000
H     1.267000000     2.202000000     4.582000000
C     2.087000000     3.424000000     2.090000000
O     2.496000000     4.423000000     1.180000000
H     1.695000000     2.500000000     1.640000000
O     3.216000000     2.942000000     2.801000000
C     3.864000000     1.835000000     2.251000000
C     3.632000000     0.617000000     2.905000000
H     3.119000000     0.607000000     3.863000000
C     4.062000000    -0.597000000     2.284000000
O     3.488000000    -1.730000000     2.845000000
C     4.725000000    -0.594000000     1.061000000
C     5.198000000    -1.922000000     0.410000000
H     6.079000000    -1.685000000    -0.190000000
C     4.231000000    -2.547000000    -0.528000000
C     4.113000000    -2.183000000    -1.904000000
H     4.902000000    -1.570000000    -2.333000000
H     5.501000000    -2.673000000     1.142000000
C     4.930000000     0.642000000     0.444000000
H     5.467000000     0.492000000    -0.489000000
C     4.510000000     1.852000000     0.981000000
C     4.840000000     3.139000000     0.177000000
H     5.709000000     3.022000000    -0.474000000
H     5.154000000     3.922000000     0.870000000
C     3.621000000     3.468000000    -0.668000000
C     3.569000000     2.871000000    -1.946000000
H     4.376000000     2.213000000    -2.261000000
C     2.559000000     4.185000000    -0.162000000
C     1.431000000     4.284000000    -0.934000000
H     0.551000000     4.693000000    -0.444000000
C     1.406000000     3.846000000    -2.241000000
O     0.174000000     3.911000000    -2.883000000
C    -0.643000000     2.699000000    -2.838000000
C    -2.170000000     2.923000000    -2.691000000
C    -3.176000000     2.023000000    -3.189000000
H    -2.811000000     1.182000000    -3.774000000
C    -2.673000000     3.944000000    -1.840000000
H    -1.917000000     4.576000000    -1.382000000
O    -0.489000000     2.049000000    -4.103000000
H    -0.218000000     2.098000000    -2.021000000
C     2.468000000     3.127000000    -2.761000000
C     2.348000000     2.601000000    -4.212000000
H     3.371000000     2.703000000    -4.582000000
H     1.715000000     3.284000000    -4.783000000
C     1.812000000     1.212000000    -4.225000000
C     2.665000000     0.106000000    -4.217000000
H     3.746000000     0.186000000    -4.303000000
C     0.404000000     1.039000000    -4.260000000
C    -0.134000000    -0.197000000    -4.378000000
H    -1.190000000    -0.456000000    -4.370000000
C     0.709000000    -1.346000000    -4.323000000
O     0.058000000    -2.509000000    -4.205000000
C    -0.092000000    -2.998000000    -2.890000000
C    -1.436000000    -3.592000000    -2.603000000
C    -2.469000000    -3.179000000    -3.396000000
H    -2.277000000    -2.567000000    -4.273000000
C    -1.667000000    -4.479000000    -1.578000000
H    -0.880000000    -4.725000000    -0.870000000
O     0.985000000    -3.993000000    -2.650000000
H     0.163000000    -2.218000000    -2.158000000
C     2.096000000    -1.165000000    -4.316000000
C     3.002000000    -2.372000000    -4.108000000
H     3.936000000    -2.146000000    -4.626000000
H     2.582000000    -3.229000000    -4.638000000
C     3.087000000    -2.715000000    -2.665000000
C     2.177000000    -3.614000000    -2.095000000
C     2.247000000    -3.941000000    -0.770000000
H     1.525000000    -4.650000000    -0.372000000
C     3.230000000    -3.359000000     0.016000000
O     3.065000000    -3.577000000     1.390000000
C     2.473000000    -2.533000000     2.260000000
H     1.887000000    -1.874000000     1.602000000
C     1.492000000    -3.204000000     3.220000000
C     1.100000000    -2.481000000     4.328000000
H     1.635000000    -1.546000000     4.478000000
C     0.755000000    -4.357000000     2.925000000
H     0.898000000    -4.889000000     1.988000000
C    -0.043000000    -4.889000000     3.949000000
O    -0.642000000    -6.066000000     3.783000000
C    -0.350000000    -4.167000000     5.114000000
H    -0.995000000    -4.684000000     5.820000000
C     0.146000000    -2.884000000     5.270000000
O    -0.010000000    -2.288000000     6.536000000
C     0.363000000    -0.994000000     6.726000000
C    -0.489000000     0.033000000     6.249000000
H    -1.405000000    -0.199000000     5.711000000
C     1.485000000    -0.656000000     7.459000000
H     2.128000000    -1.446000000     7.841000000
C     1.826000000     0.655000000     7.715000000
H     2.631000000     0.925000000     8.394000000
C     1.014000000     1.681000000     7.236000000
H     1.243000000     2.723000000     7.447000000
C    -0.101000000     1.332000000     6.506000000
O    -0.921000000     2.346000000     5.974000000
C    -0.652000000     3.094000000     4.860000000
C    -1.519000000     4.041000000     4.473000000
H    -2.463000000     4.073000000     5.012000000
C    -1.174000000     4.939000000     3.458000000
O    -1.926000000     6.029000000     3.208000000
C    -2.464000000     6.412000000     1.949000000
C    -3.298000000     5.576000000     1.201000000
H    -3.441000000     4.522000000     1.426000000
C    -2.194000000     7.691000000     1.407000000
H    -1.659000000     8.394000000     2.040000000
C    -2.648000000     8.101000000     0.136000000
H    -2.493000000     9.106000000    -0.249000000
C    -3.431000000     7.240000000    -0.628000000
H    -3.886000000     7.639000000    -1.531000000
C    -3.760000000     6.023000000    -0.068000000
O    -4.549000000     5.147000000    -0.757000000
C    -4.048000000     4.174000000    -1.616000000
C    -4.949000000     3.290000000    -2.165000000
H    -5.974000000     3.434000000    -1.833000000
C    -4.559000000     2.227000000    -2.910000000
O    -5.543000000     1.402000000    -3.417000000
C    -5.245000000     0.272000000    -4.230000000
C    -5.144000000    -0.995000000    -3.673000000
H    -5.238000000    -1.152000000    -2.601000000
C    -5.188000000     0.456000000    -5.603000000
H    -5.336000000     1.425000000    -6.073000000
C    -5.072000000    -0.739000000    -6.346000000
H    -5.104000000    -0.718000000    -7.433000000
C    -4.867000000    -1.971000000    -5.786000000
H    -4.711000000    -2.818000000    -6.448000000
C    -4.894000000    -2.143000000    -4.434000000
O    -4.804000000    -3.361000000    -3.885000000
C    -3.715000000    -3.687000000    -3.157000000
C    -4.005000000    -4.577000000    -2.135000000
H    -4.925000000    -5.152000000    -2.073000000
C    -2.945000000    -4.969000000    -1.383000000
O    -3.218000000    -5.787000000    -0.335000000
C    -2.282000000    -6.360000000     0.470000000
C    -1.625000000    -7.533000000    -0.002000000
H    -1.897000000    -7.962000000    -0.964000000
C    -0.616000000    -8.128000000     0.780000000
H    -0.031000000    -8.998000000     0.493000000
C    -0.396000000    -7.745000000     2.078000000
H     0.436000000    -8.189000000     2.618000000
C    -1.041000000    -6.639000000     2.572000000
C    -2.029000000    -5.995000000     1.775000000
H    -2.588000000    -5.193000000     2.252000000
C    -1.135000000    -1.283000000     1.908000000
H    -1.077000000    -2.359000000     2.050000000
C    -0.333000000    -0.724000000     0.916000000
H     0.278000000    -1.335000000     0.256000000
C    -0.490000000     0.635000000     0.605000000
H    -0.004000000     0.961000000    -0.343000000
C    -1.308000000     1.378000000     1.350000000
H    -1.398000000     2.417000000     1.044000000
C    -2.144000000     0.845000000     2.350000000
H    -2.826000000     1.488000000     2.901000000
C    -2.075000000    -0.553000000     2.544000000
C    -2.996000000    -1.100000000     3.622000000
O    -3.759000000    -0.347000000     4.276000000
O    -2.970000000    -2.326000000     3.755000000
O    -5.551000000    -0.397000000     2.008000000
H    -4.994000000    -0.635000000     1.266000000
H    -4.970000000    -0.443000000     2.767000000
O    -2.033000000    -1.061000000     9.329000000
H    -1.258000000    -0.639000000     9.701000000
H    -2.434000000    -0.386000000     8.781000000
O    -8.053000000    -1.089000000     6.931000000
H    -7.699000000    -0.382000000     7.471000000
H    -7.634000000    -0.971000000     6.078000000
O    -5.022000000    -0.943000000     6.590000000
H    -5.588000000    -0.191000000     6.768000000
H    -4.814000000    -0.871000000     5.659000000
O    -3.479000000    -5.816000000     7.293000000
H    -3.765000000    -5.006000000     6.871000000
H    -2.829000000    -5.534000000     7.937000000
O    -3.369000000     1.033000000     7.616000000
H    -4.030000000     0.361000000     7.453000000
H    -3.217000000     1.432000000     6.759000000
O    -6.909000000     3.578000000     2.133000000
H    -6.580000000     3.000000000     2.821000000
H    -7.748000000     3.193000000     1.878000000
O    -5.326000000     3.349000000     6.978000000
H    -5.514000000     4.112000000     6.431000000
H    -4.675000000     3.660000000     7.607000000
O    -9.502000000    -2.324000000     3.553000000
H    -8.719000000    -2.019000000     4.012000000
H    -9.184000000    -3.012000000     2.968000000
O    -8.234000000    -0.222000000     0.895000000
H    -8.229000000     0.096000000    -0.008000000
H    -7.359000000    -0.019000000     1.225000000
O    -6.636000000    -4.406000000     5.406000000
H    -6.492000000    -4.070000000     6.291000000
H    -7.481000000    -4.852000000     5.453000000
O    -5.540000000    -3.481000000     2.829000000
H    -4.622000000    -3.237000000     2.954000000
H    -5.829000000    -3.774000000     3.693000000
O    -6.387000000    -3.123000000     7.674000000
H    -5.777000000    -2.411000000     7.484000000
H    -7.249000000    -2.760000000     7.474000000
O    -1.597000000    -3.968000000     8.295000000
H    -2.010000000    -3.581000000     7.523000000
H    -1.637000000    -3.279000000     8.959000000
O    -3.190000000    -3.057000000     6.251000000
H    -3.079000000    -3.009000000     5.302000000
H    -3.691000000    -2.273000000     6.474000000
O    -8.020000000    -3.598000000     1.667000000
H    -7.160000000    -3.391000000     2.033000000
H    -8.058000000    -3.101000000     0.850000000
O    -4.902000000     1.856000000     4.015000000
H    -4.326000000     1.093000000     4.063000000
H    -5.372000000     1.856000000     4.849000000
O    -6.590000000     0.982000000     7.963000000
H    -6.120000000     1.763000000     7.672000000
H    -6.262000000     0.822000000     8.848000000
O    -7.373000000    -0.705000000     4.159000000
H    -7.000000000    -0.663000000     3.278000000
H    -7.964000000     0.046000000     4.205000000
