215
-1453.83492
C    -0.734000000     3.409000000     3.896000000
H    -0.575000000     4.136000000     3.103000000
C     0.257000000     2.452000000     4.176000000
C    -0.072000000     1.507000000     5.116000000
H     0.610000000     0.692000000     5.344000000
C     1.470000000     2.356000000     3.303000000
O     1.781000000     3.614000000     2.736000000
H     1.171000000     1.712000000     2.463000000
O     2.643000000     1.812000000     3.903000000
C     3.392000000     1.045000000     3.124000000
C     3.307000000    -0.350000000     3.295000000
H     2.647000000    -0.587000000     4.126000000
C     3.919000000    -1.222000000     2.431000000
O     3.462000000    -2.525000000     2.571000000
C     4.800000000    -0.768000000     1.476000000
C     5.447000000    -1.600000000     0.450000000
H     6.342000000    -1.030000000     0.191000000
C     4.497000000    -1.943000000    -0.698000000
C     4.523000000    -1.274000000    -1.940000000
H     5.247000000    -0.484000000    -2.123000000
H     5.863000000    -2.491000000     0.927000000
C     4.897000000     0.617000000     1.295000000
H     5.628000000     1.029000000     0.605000000
C     4.291000000     1.527000000     2.142000000
C     4.434000000     3.027000000     1.808000000
H     5.339000000     3.191000000     1.218000000
H     4.458000000     3.627000000     2.720000000
C     3.294000000     3.398000000     0.843000000
C     3.578000000     3.593000000    -0.497000000
H     4.610000000     3.541000000    -0.833000000
C     2.082000000     3.757000000     1.394000000
C     1.002000000     4.117000000     0.545000000
H     0.063000000     4.395000000     1.016000000
C     1.242000000     4.195000000    -0.811000000
O     0.171000000     4.554000000    -1.565000000
C    -0.641000000     3.489000000    -2.070000000
C    -2.128000000     3.801000000    -1.987000000
C    -2.953000000     3.327000000    -3.003000000
H    -2.553000000     2.828000000    -3.881000000
C    -2.710000000     4.492000000    -0.955000000
H    -2.033000000     4.892000000    -0.204000000
O    -0.219000000     3.372000000    -3.505000000
H    -0.442000000     2.521000000    -1.587000000
C     2.504000000     3.949000000    -1.352000000
C     2.635000000     3.899000000    -2.880000000
H     3.651000000     4.123000000    -3.212000000
H     2.002000000     4.725000000    -3.212000000
C     2.118000000     2.683000000    -3.551000000
C     3.002000000     1.556000000    -3.792000000
H     4.058000000     1.664000000    -3.558000000
C     0.807000000     2.586000000    -4.048000000
C     0.396000000     1.373000000    -4.538000000
H    -0.674000000     1.279000000    -4.702000000
C     1.243000000     0.318000000    -4.695000000
O     0.638000000    -0.929000000    -4.903000000
C     0.575000000    -1.857000000    -3.754000000
C    -0.703000000    -2.617000000    -3.737000000
C    -1.868000000    -1.838000000    -3.671000000
H    -1.868000000    -0.752000000    -3.632000000
C    -0.800000000    -3.998000000    -3.541000000
H     0.081000000    -4.623000000    -3.665000000
O     1.686000000    -2.774000000    -3.691000000
H     0.593000000    -1.291000000    -2.811000000
C     2.590000000     0.349000000    -4.271000000
C     3.611000000    -0.774000000    -4.317000000
H     4.599000000    -0.395000000    -4.584000000
H     3.342000000    -1.457000000    -5.125000000
C     3.660000000    -1.564000000    -3.030000000
C     2.727000000    -2.571000000    -2.861000000
C     2.781000000    -3.354000000    -1.771000000
H     2.009000000    -4.113000000    -1.673000000
C     3.668000000    -3.088000000    -0.645000000
O     3.463000000    -3.715000000     0.518000000
C     2.637000000    -2.996000000     1.462000000
H     2.046000000    -2.145000000     1.092000000
C     1.572000000    -3.930000000     1.965000000
C     0.802000000    -3.492000000     3.085000000
H     1.155000000    -2.619000000     3.627000000
C     1.175000000    -5.054000000     1.300000000
H     1.759000000    -5.377000000     0.442000000
C     0.078000000    -5.772000000     1.729000000
O    -0.248000000    -6.941000000     1.162000000
C    -0.747000000    -5.203000000     2.718000000
H    -1.608000000    -5.776000000     3.052000000
C    -0.361000000    -4.120000000     3.453000000
O    -1.138000000    -3.708000000     4.511000000
C    -0.811000000    -2.911000000     5.517000000
C    -1.216000000    -1.556000000     5.484000000
H    -1.580000000    -1.048000000     4.594000000
C    -0.062000000    -3.441000000     6.608000000
H     0.345000000    -4.445000000     6.517000000
C     0.184000000    -2.653000000     7.757000000
H     0.792000000    -3.071000000     8.556000000
C    -0.357000000    -1.347000000     7.756000000
H    -0.257000000    -0.647000000     8.581000000
C    -0.999000000    -0.820000000     6.655000000
O    -1.398000000     0.491000000     6.744000000
C    -1.285000000     1.440000000     5.712000000
C    -2.238000000     2.374000000     5.519000000
H    -3.160000000     2.399000000     6.095000000
C    -1.991000000     3.320000000     4.512000000
O    -2.870000000     4.308000000     4.465000000
C    -3.028000000     5.216000000     3.458000000
C    -3.620000000     4.786000000     2.271000000
H    -3.701000000     3.715000000     2.103000000
C    -3.016000000     6.577000000     3.813000000
H    -2.682000000     6.922000000     4.788000000
C    -3.392000000     7.562000000     2.910000000
H    -3.396000000     8.609000000     3.202000000
C    -3.949000000     7.106000000     1.688000000
H    -4.337000000     7.871000000     1.021000000
C    -4.005000000     5.781000000     1.309000000
O    -4.653000000     5.333000000     0.193000000
C    -4.096000000     4.703000000    -0.883000000
C    -4.906000000     4.307000000    -1.944000000
H    -5.968000000     4.531000000    -1.888000000
C    -4.341000000     3.542000000    -2.969000000
O    -5.254000000     3.015000000    -3.857000000
C    -5.067000000     1.756000000    -4.373000000
C    -4.709000000     0.693000000    -3.488000000
H    -4.566000000     0.772000000    -2.413000000
C    -5.229000000     1.538000000    -5.718000000
H    -5.645000000     2.391000000    -6.248000000
C    -4.998000000     0.299000000    -6.253000000
H    -5.115000000     0.048000000    -7.304000000
C    -4.647000000    -0.733000000    -5.371000000
H    -4.527000000    -1.711000000    -5.828000000
C    -4.600000000    -0.592000000    -3.988000000
O    -4.253000000    -1.646000000    -3.215000000
C    -3.093000000    -2.403000000    -3.303000000
C    -3.190000000    -3.776000000    -3.097000000
H    -4.124000000    -4.288000000    -2.880000000
C    -2.049000000    -4.562000000    -3.248000000
O    -2.149000000    -5.909000000    -2.991000000
C    -1.253000000    -6.630000000    -2.288000000
C    -0.391000000    -7.628000000    -2.912000000
H    -0.385000000    -7.871000000    -3.972000000
C     0.498000000    -8.313000000    -2.066000000
H     1.271000000    -8.953000000    -2.482000000
C     0.592000000    -8.044000000    -0.685000000
H     1.167000000    -8.625000000     0.030000000
C    -0.250000000    -7.095000000    -0.169000000
C    -1.133000000    -6.358000000    -0.960000000
H    -1.899000000    -5.728000000    -0.516000000
C    -1.477000000    -2.365000000     0.473000000
H    -1.668000000    -3.426000000     0.336000000
C    -0.499000000    -1.659000000    -0.229000000
H     0.144000000    -2.176000000    -0.936000000
C    -0.366000000    -0.282000000    -0.082000000
H     0.313000000     0.278000000    -0.725000000
C    -1.144000000     0.380000000     0.831000000
H    -0.926000000     1.421000000     1.055000000
C    -2.175000000    -0.328000000     1.529000000
H    -2.791000000     0.167000000     2.275000000
C    -2.355000000    -1.677000000     1.297000000
C    -3.422000000    -2.546000000     1.982000000
O    -4.458000000    -1.957000000     2.316000000
O    -3.494000000    -3.744000000     2.001000000
O    -7.285000000    -5.071000000    -0.154000000
H    -7.252000000    -4.746000000     0.746000000
H    -8.076000000    -5.608000000    -0.186000000
O    -4.212000000    -2.618000000     5.992000000
H    -3.881000000    -2.193000000     5.200000000
H    -5.144000000    -2.403000000     6.007000000
O    -6.093000000    -8.952000000     1.396000000
H    -6.074000000    -8.051000000     1.718000000
H    -5.599000000    -8.924000000     0.576000000
O    -6.371000000    -4.076000000     2.479000000
H    -6.084000000    -4.786000000     3.052000000
H    -5.699000000    -3.401000000     2.578000000
O    -5.190000000    -0.350000000     4.103000000
H    -4.785000000    -0.923000000     3.453000000
H    -5.887000000     0.100000000     3.625000000
O    -7.448000000     1.070000000     3.107000000
H    -7.185000000     1.904000000     2.719000000
H    -8.258000000     0.839000000     2.651000000
O    -8.597000000    -1.880000000     2.512000000
H    -7.889000000    -2.467000000     2.778000000
H    -8.809000000    -2.150000000     1.619000000
O    -7.460000000    -0.758000000    -0.583000000
H    -6.572000000    -0.605000000    -0.259000000
H    -7.408000000    -0.572000000    -1.521000000
O    -7.477000000    -4.942000000     5.696000000
H    -8.352000000    -4.778000000     6.049000000
H    -7.124000000    -4.070000000     5.516000000
O    -3.554000000    -7.484000000     2.830000000
H    -3.719000000    -7.067000000     1.985000000
H    -3.444000000    -6.754000000     3.440000000
O    -4.539000000    -5.957000000     0.667000000
H    -4.047000000    -5.193000000     0.968000000
H    -5.437000000    -5.641000000     0.572000000
O    -6.507000000     0.739000000     6.544000000
H    -6.425000000     1.674000000     6.732000000
H    -5.897000000     0.586000000     5.823000000
O    -4.008000000    -5.066000000     4.206000000
H    -3.758000000    -4.554000000     3.437000000
H    -4.011000000    -4.433000000     4.924000000
O    -6.577000000    -3.406000000    -2.363000000
H    -6.569000000    -4.047000000    -1.652000000
H    -5.856000000    -2.811000000    -2.158000000
O    -5.007000000    -0.206000000     0.286000000
H    -5.017000000    -0.611000000     1.153000000
H    -4.081000000    -0.173000000     0.047000000
O    -7.738000000     2.294000000    -0.245000000
H    -6.992000000     1.697000000    -0.184000000
H    -8.433000000     1.859000000     0.249000000
O    -3.456000000    -2.633000000     8.644000000
H    -3.730000000    -2.998000000     7.802000000
H    -2.508000000    -2.765000000     8.665000000
O    -6.573000000    -6.755000000     3.946000000
H    -6.814000000    -5.980000000     4.452000000
H    -5.829000000    -7.128000000     4.419000000
O    -7.132000000    -2.307000000     5.896000000
H    -6.983000000    -1.727000000     5.149000000
H    -8.006000000    -2.076000000     6.209000000
