215
-1448.77762
C     0.486000000     3.807000000     3.646000000
H     0.141000000     4.352000000     2.771000000
C     1.597000000     2.869000000     3.585000000
C     1.891000000     2.152000000     4.738000000
H     2.743000000     1.481000000     4.818000000
C     2.426000000     2.631000000     2.276000000
O     2.484000000     3.890000000     1.624000000
H     1.876000000     2.003000000     1.559000000
O     3.682000000     2.047000000     2.512000000
C     4.173000000     1.168000000     1.543000000
C     4.106000000    -0.157000000     1.886000000
H     3.912000000    -0.421000000     2.922000000
C     4.469000000    -1.138000000     1.018000000
O     4.284000000    -2.450000000     1.403000000
C     4.875000000    -0.826000000    -0.296000000
C     5.260000000    -1.928000000    -1.321000000
H     5.865000000    -1.478000000    -2.111000000
C     3.934000000    -2.373000000    -2.072000000
C     3.533000000    -1.626000000    -3.179000000
H     4.167000000    -0.803000000    -3.501000000
H     5.752000000    -2.771000000    -0.833000000
C     4.898000000     0.526000000    -0.637000000
H     5.124000000     0.779000000    -1.670000000
C     4.602000000     1.525000000     0.276000000
C     4.673000000     3.015000000    -0.119000000
H     5.499000000     3.132000000    -0.823000000
H     4.901000000     3.487000000     0.839000000
C     3.284000000     3.532000000    -0.577000000
C     3.056000000     3.521000000    -1.972000000
H     3.737000000     3.089000000    -2.700000000
C     2.296000000     3.983000000     0.274000000
C     1.163000000     4.584000000    -0.235000000
H     0.424000000     4.924000000     0.486000000
C     0.829000000     4.503000000    -1.585000000
O    -0.427000000     4.688000000    -1.929000000
C    -1.321000000     3.492000000    -2.028000000
C    -2.713000000     3.708000000    -1.476000000
C    -3.783000000     2.952000000    -1.880000000
H    -3.631000000     2.337000000    -2.763000000
C    -2.877000000     4.512000000    -0.351000000
H    -2.008000000     4.999000000     0.083000000
O    -1.436000000     3.083000000    -3.436000000
H    -0.783000000     2.737000000    -1.436000000
C     1.775000000     3.951000000    -2.458000000
C     1.337000000     3.636000000    -3.856000000
H     2.187000000     3.824000000    -4.516000000
H     0.621000000     4.381000000    -4.209000000
C     0.708000000     2.268000000    -4.103000000
C     1.485000000     1.206000000    -4.527000000
H     2.510000000     1.390000000    -4.841000000
C    -0.636000000     2.108000000    -3.984000000
C    -1.204000000     0.852000000    -4.196000000
H    -2.255000000     0.816000000    -3.920000000
C    -0.400000000    -0.239000000    -4.471000000
O    -0.939000000    -1.509000000    -4.555000000
C    -0.818000000    -2.292000000    -3.422000000
C    -2.144000000    -3.034000000    -3.023000000
C    -3.418000000    -2.357000000    -3.096000000
H    -3.440000000    -1.338000000    -3.473000000
C    -2.049000000    -4.294000000    -2.398000000
H    -1.122000000    -4.819000000    -2.180000000
O     0.212000000    -3.201000000    -3.688000000
H    -0.441000000    -1.739000000    -2.550000000
C     0.964000000    -0.041000000    -4.787000000
C     1.889000000    -1.147000000    -5.033000000
H     2.830000000    -0.933000000    -5.545000000
H     1.417000000    -1.833000000    -5.739000000
C     2.278000000    -1.945000000    -3.775000000
C     1.491000000    -2.941000000    -3.233000000
C     1.839000000    -3.612000000    -2.063000000
H     1.168000000    -4.290000000    -1.540000000
C     3.076000000    -3.304000000    -1.500000000
O     3.343000000    -3.886000000    -0.362000000
C     3.092000000    -3.055000000     0.765000000
H     2.499000000    -2.178000000     0.468000000
C     2.169000000    -3.679000000     1.847000000
C     1.862000000    -2.988000000     3.007000000
H     2.316000000    -2.016000000     3.185000000
C     1.516000000    -4.917000000     1.590000000
H     1.691000000    -5.421000000     0.642000000
C     0.625000000    -5.467000000     2.468000000
O    -0.092000000    -6.597000000     2.258000000
C     0.332000000    -4.800000000     3.609000000
H    -0.438000000    -5.284000000     4.206000000
C     0.846000000    -3.518000000     3.854000000
O     0.380000000    -2.798000000     4.944000000
C     1.191000000    -2.026000000     5.722000000
C     0.802000000    -0.676000000     6.058000000
H    -0.132000000    -0.220000000     5.738000000
C     2.455000000    -2.521000000     6.117000000
H     2.745000000    -3.556000000     5.953000000
C     3.312000000    -1.660000000     6.829000000
H     4.299000000    -1.996000000     7.136000000
C     2.960000000    -0.336000000     7.102000000
H     3.697000000     0.354000000     7.504000000
C     1.675000000     0.108000000     6.827000000
O     1.203000000     1.410000000     7.010000000
C     1.008000000     2.166000000     5.885000000
C     0.056000000     3.122000000     5.902000000
H    -0.451000000     3.234000000     6.856000000
C    -0.184000000     3.946000000     4.828000000
O    -1.229000000     4.756000000     4.864000000
C    -1.711000000     5.506000000     3.839000000
C    -2.852000000     5.185000000     3.150000000
H    -3.186000000     4.186000000     3.419000000
C    -1.110000000     6.695000000     3.519000000
H    -0.370000000     7.154000000     4.170000000
C    -1.445000000     7.386000000     2.392000000
H    -0.994000000     8.325000000     2.080000000
C    -2.637000000     7.074000000     1.699000000
H    -2.819000000     7.482000000     0.708000000
C    -3.337000000     5.912000000     2.100000000
O    -4.384000000     5.368000000     1.395000000
C    -4.152000000     4.682000000     0.247000000
C    -5.261000000     4.064000000    -0.303000000
H    -6.249000000     4.192000000     0.132000000
C    -5.058000000     3.159000000    -1.332000000
O    -6.073000000     2.204000000    -1.536000000
C    -5.982000000     1.282000000    -2.551000000
C    -5.934000000    -0.064000000    -2.126000000
H    -5.745000000    -0.320000000    -1.087000000
C    -6.078000000     1.582000000    -3.895000000
H    -6.172000000     2.613000000    -4.228000000
C    -5.978000000     0.563000000    -4.790000000
H    -5.902000000     0.853000000    -5.835000000
C    -6.189000000    -0.760000000    -4.371000000
H    -6.325000000    -1.535000000    -5.121000000
C    -6.076000000    -1.127000000    -3.035000000
O    -5.808000000    -2.439000000    -2.668000000
C    -4.552000000    -2.997000000    -2.602000000
C    -4.466000000    -4.325000000    -2.083000000
H    -5.354000000    -4.927000000    -1.910000000
C    -3.254000000    -4.943000000    -1.912000000
O    -3.176000000    -6.260000000    -1.499000000
C    -2.091000000    -6.850000000    -0.868000000
C    -1.635000000    -8.192000000    -1.274000000
H    -2.117000000    -8.682000000    -2.116000000
C    -0.697000000    -8.876000000    -0.515000000
H    -0.425000000    -9.907000000    -0.729000000
C    -0.221000000    -8.329000000     0.658000000
H     0.341000000    -8.914000000     1.382000000
C    -0.554000000    -7.013000000     1.009000000
C    -1.552000000    -6.298000000     0.331000000
H    -1.993000000    -5.378000000     0.706000000
C    -0.445000000    -1.449000000     0.266000000
H    -0.600000000    -2.514000000     0.114000000
C     0.556000000    -0.733000000    -0.469000000
H     1.148000000    -1.189000000    -1.259000000
C     0.703000000     0.666000000    -0.252000000
H     1.366000000     1.340000000    -0.889000000
C    -0.152000000     1.321000000     0.631000000
H    -0.033000000     2.382000000     0.834000000
C    -1.148000000     0.621000000     1.332000000
H    -1.926000000     1.129000000     1.896000000
C    -1.250000000    -0.772000000     1.240000000
C    -2.425000000    -1.464000000     1.967000000
O    -3.023000000    -0.709000000     2.725000000
O    -2.632000000    -2.682000000     1.909000000
O    -5.351000000     0.398000000     1.948000000
H    -4.512000000     0.004000000     2.184000000
H    -5.220000000     1.337000000     2.078000000
O    -5.205000000    -6.195000000     5.483000000
H    -4.606000000    -5.550000000     5.858000000
H    -5.588000000    -5.754000000     4.725000000
O    -3.167000000     2.675000000     6.515000000
H    -3.211000000     1.881000000     7.048000000
H    -3.164000000     2.357000000     5.612000000
O    -8.741000000    -0.013000000    -0.541000000
H    -8.219000000    -0.583000000     0.023000000
H    -8.433000000     0.870000000    -0.340000000
O    -3.292000000     1.523000000     4.022000000
H    -3.214000000     0.611000000     3.743000000
H    -4.198000000     1.759000000     3.822000000
O    -4.184000000     0.752000000     8.220000000
H    -4.474000000     0.096000000     8.855000000
H    -4.742000000     0.608000000     7.456000000
O    -6.213000000    -3.357000000     3.795000000
H    -5.476000000    -2.825000000     4.097000000
H    -5.880000000    -3.807000000     3.018000000
O    -2.911000000    -4.294000000     4.020000000
H    -2.625000000    -3.694000000     3.331000000
H    -3.198000000    -3.722000000     4.732000000
O    -3.756000000    -6.323000000     2.405000000
H    -4.102000000    -5.828000000     1.662000000
H    -3.413000000    -5.655000000     2.998000000
O    -7.924000000     1.688000000     3.985000000
H    -8.199000000     0.797000000     3.770000000
H    -8.650000000     2.047000000     4.494000000
O    -7.402000000    -1.354000000     1.488000000
H    -6.679000000    -0.868000000     1.884000000
H    -8.106000000    -1.305000000     2.134000000
O    -1.117000000    -4.335000000     7.182000000
H    -1.986000000    -3.939000000     7.238000000
H    -0.812000000    -4.120000000     6.301000000
O    -5.054000000    -3.738000000     1.260000000
H    -5.491000000    -3.035000000     0.780000000
H    -4.144000000    -3.450000000     1.330000000
O    -4.334000000    -1.577000000     4.882000000
H    -3.769000000    -1.420000000     4.126000000
H    -4.667000000    -0.711000000     5.117000000
O    -5.728000000     3.016000000     3.398000000
H    -5.944000000     3.947000000     3.434000000
H    -6.537000000     2.572000000     3.653000000
O    -7.827000000    -4.545000000     0.081000000
H    -7.537000000    -3.672000000     0.349000000
H    -8.255000000    -4.904000000     0.859000000
O    -9.014000000    -3.676000000     4.012000000
H    -8.834000000    -4.424000000     3.441000000
H    -8.183000000    -3.203000000     4.055000000
O    -3.624000000    -3.375000000     6.821000000
H    -4.093000000    -3.253000000     7.646000000
H    -3.986000000    -2.708000000     6.238000000
O    -6.105000000     0.367000000     6.254000000
H    -6.555000000     1.203000000     6.374000000
H    -6.802000000    -0.253000000     6.040000000
