215
-1427.32568
C    -0.639000000     3.995000000     3.220000000
H    -0.668000000     4.707000000     2.399000000
C     0.455000000     3.106000000     3.290000000
C     0.507000000     2.186000000     4.342000000
H     1.300000000     1.445000000     4.283000000
C     1.509000000     3.002000000     2.204000000
O     1.510000000     4.281000000     1.479000000
H     1.245000000     2.232000000     1.465000000
O     2.796000000     2.643000000     2.804000000
C     3.582000000     1.731000000     2.045000000
C     3.802000000     0.452000000     2.495000000
H     3.447000000     0.198000000     3.491000000
C     4.418000000    -0.525000000     1.697000000
O     4.446000000    -1.831000000     2.133000000
C     4.913000000    -0.184000000     0.460000000
C     5.418000000    -1.280000000    -0.447000000
H     6.234000000    -0.885000000    -1.056000000
C     4.435000000    -2.006000000    -1.250000000
C     4.092000000    -1.410000000    -2.501000000
H     4.665000000    -0.623000000    -2.985000000
H     5.945000000    -1.996000000     0.186000000
C     4.762000000     1.068000000    -0.034000000
H     5.187000000     1.261000000    -1.016000000
C     4.061000000     2.003000000     0.731000000
C     4.000000000     3.489000000     0.117000000
H     4.802000000     3.662000000    -0.604000000
H     4.277000000     4.196000000     0.901000000
C     2.673000000     3.792000000    -0.570000000
C     2.643000000     3.573000000    -1.961000000
H     3.488000000     3.056000000    -2.409000000
C     1.579000000     4.234000000     0.099000000
C     0.410000000     4.515000000    -0.640000000
H    -0.430000000     4.784000000    -0.005000000
C     0.335000000     4.278000000    -2.012000000
O    -0.912000000     4.381000000    -2.568000000
C    -1.641000000     3.104000000    -2.779000000
C    -3.112000000     3.110000000    -2.351000000
C    -4.052000000     2.352000000    -3.087000000
H    -3.770000000     1.881000000    -4.025000000
C    -3.520000000     3.713000000    -1.198000000
H    -2.834000000     4.357000000    -0.655000000
O    -1.390000000     2.618000000    -4.162000000
H    -1.186000000     2.416000000    -2.051000000
C     1.504000000     3.948000000    -2.712000000
C     1.472000000     3.518000000    -4.152000000
H     2.431000000     3.708000000    -4.638000000
H     0.793000000     4.266000000    -4.568000000
C     1.019000000     2.055000000    -4.295000000
C     2.043000000     1.080000000    -4.306000000
H     3.082000000     1.393000000    -4.382000000
C    -0.339000000     1.695000000    -4.254000000
C    -0.644000000     0.332000000    -4.410000000
H    -1.698000000     0.066000000    -4.388000000
C     0.345000000    -0.600000000    -4.452000000
O    -0.094000000    -1.941000000    -4.426000000
C     0.046000000    -2.634000000    -3.153000000
C    -1.308000000    -3.321000000    -2.759000000
C    -2.501000000    -2.796000000    -3.008000000
H    -2.568000000    -1.903000000    -3.624000000
C    -1.228000000    -4.561000000    -2.090000000
H    -0.240000000    -4.982000000    -1.920000000
O     1.166000000    -3.566000000    -3.262000000
H     0.214000000    -1.847000000    -2.403000000
C     1.685000000    -0.270000000    -4.483000000
C     2.625000000    -1.416000000    -4.620000000
H     3.457000000    -1.082000000    -5.243000000
H     2.229000000    -2.183000000    -5.289000000
C     3.107000000    -2.049000000    -3.323000000
C     2.404000000    -3.165000000    -2.802000000
C     2.714000000    -3.625000000    -1.526000000
H     2.100000000    -4.445000000    -1.161000000
C     3.672000000    -3.068000000    -0.735000000
O     3.731000000    -3.498000000     0.604000000
C     3.345000000    -2.568000000     1.596000000
H     2.536000000    -1.981000000     1.137000000
C     2.699000000    -3.362000000     2.760000000
C     2.647000000    -2.934000000     4.080000000
H     3.318000000    -2.141000000     4.403000000
C     1.791000000    -4.383000000     2.457000000
H     1.585000000    -4.686000000     1.433000000
C     1.035000000    -5.000000000     3.419000000
O     0.032000000    -5.909000000     3.095000000
C     1.119000000    -4.492000000     4.707000000
H     0.463000000    -4.820000000     5.509000000
C     1.864000000    -3.426000000     5.059000000
O     1.717000000    -2.851000000     6.274000000
C     1.863000000    -1.543000000     6.527000000
C     0.807000000    -0.706000000     6.213000000
H    -0.023000000    -1.130000000     5.654000000
C     2.944000000    -1.124000000     7.268000000
H     3.768000000    -1.810000000     7.445000000
C     3.085000000     0.235000000     7.562000000
H     3.962000000     0.584000000     8.102000000
C     1.940000000     1.046000000     7.420000000
H     1.995000000     2.075000000     7.765000000
C     0.830000000     0.557000000     6.743000000
O    -0.248000000     1.408000000     6.462000000
C    -0.333000000     2.293000000     5.465000000
C    -1.333000000     3.192000000     5.459000000
H    -2.059000000     3.148000000     6.267000000
C    -1.512000000     4.037000000     4.360000000
O    -2.533000000     4.950000000     4.261000000
C    -3.030000000     5.445000000     3.039000000
C    -3.880000000     4.632000000     2.303000000
H    -4.147000000     3.675000000     2.744000000
C    -3.042000000     6.812000000     2.739000000
H    -2.464000000     7.511000000     3.337000000
C    -3.684000000     7.284000000     1.606000000
H    -3.809000000     8.353000000     1.451000000
C    -4.344000000     6.396000000     0.792000000
H    -4.883000000     6.680000000    -0.108000000
C    -4.452000000     5.043000000     1.106000000
O    -5.191000000     4.200000000     0.403000000
C    -4.789000000     3.520000000    -0.723000000
C    -5.742000000     2.897000000    -1.541000000
H    -6.761000000     2.836000000    -1.169000000
C    -5.338000000     2.213000000    -2.672000000
O    -6.274000000     1.567000000    -3.390000000
C    -5.919000000     0.353000000    -4.028000000
C    -5.598000000    -0.740000000    -3.241000000
H    -5.721000000    -0.682000000    -2.163000000
C    -5.740000000     0.374000000    -5.439000000
H    -5.815000000     1.246000000    -6.083000000
C    -5.229000000    -0.844000000    -5.973000000
H    -5.026000000    -0.886000000    -7.040000000
C    -5.061000000    -2.064000000    -5.231000000
H    -4.615000000    -2.939000000    -5.697000000
C    -5.220000000    -1.993000000    -3.849000000
O    -4.935000000    -3.089000000    -3.064000000
C    -3.697000000    -3.473000000    -2.761000000
C    -3.684000000    -4.714000000    -2.144000000
H    -4.592000000    -5.277000000    -1.941000000
C    -2.454000000    -5.238000000    -1.782000000
O    -2.420000000    -6.358000000    -0.964000000
C    -1.311000000    -6.673000000    -0.186000000
C    -0.237000000    -7.448000000    -0.729000000
H    -0.306000000    -7.741000000    -1.774000000
C     0.824000000    -7.943000000     0.052000000
H     1.567000000    -8.610000000    -0.378000000
C     0.922000000    -7.435000000     1.375000000
H     1.725000000    -7.623000000     2.083000000
C    -0.048000000    -6.561000000     1.857000000
C    -1.107000000    -6.129000000     1.087000000
H    -1.844000000    -5.423000000     1.462000000
C    -0.731000000    -1.360000000     0.609000000
H    -0.581000000    -2.372000000     0.978000000
C     0.327000000    -0.563000000     0.050000000
H     1.244000000    -1.065000000    -0.250000000
C     0.114000000     0.770000000    -0.202000000
H     0.936000000     1.413000000    -0.686000000
C    -1.129000000     1.354000000     0.146000000
H    -1.155000000     2.430000000    -0.005000000
C    -2.158000000     0.639000000     0.604000000
H    -3.087000000     1.159000000     0.824000000
C    -1.978000000    -0.747000000     0.717000000
C    -3.178000000    -1.410000000     1.390000000
O    -4.277000000    -0.913000000     1.314000000
O    -3.012000000    -2.338000000     2.108000000
O    -6.381000000    -3.292000000    -0.389000000
H    -5.848000000    -3.461000000     0.388000000
H    -5.879000000    -2.650000000    -0.890000000
O    -9.014000000    -1.148000000     2.277000000
H    -9.309000000    -0.273000000     2.027000000
H    -8.270000000    -0.993000000     2.859000000
O    -2.720000000    -0.127000000     4.408000000
H    -3.415000000     0.214000000     3.846000000
H    -1.984000000    -0.280000000     3.815000000
O    -3.182000000     0.839000000     7.041000000
H    -4.052000000     0.462000000     7.171000000
H    -3.004000000     0.716000000     6.108000000
O    -5.407000000     1.599000000     5.055000000
H    -5.320000000     1.723000000     4.110000000
H    -6.132000000     0.981000000     5.149000000
O    -9.669000000    -3.595000000     1.517000000
H    -8.777000000    -3.934000000     1.445000000
H    -9.559000000    -2.653000000     1.645000000
O    -8.119000000    -5.453000000    -0.964000000
H    -7.745000000    -4.627000000    -0.657000000
H    -7.385000000    -6.067000000    -0.953000000
O    -6.671000000    -6.297000000     1.367000000
H    -6.975000000    -5.703000000     2.053000000
H    -5.851000000    -5.911000000     1.061000000
O    -7.357000000    -4.096000000     2.934000000
H    -7.622000000    -4.207000000     3.848000000
H    -6.838000000    -3.291000000     2.932000000
O    -2.940000000    -3.701000000     4.376000000
H    -2.962000000    -3.144000000     3.598000000
H    -3.837000000    -3.682000000     4.710000000
O    -3.947000000    -6.094000000     3.076000000
H    -3.187000000    -5.992000000     3.650000000
H    -4.577000000    -6.590000000     3.599000000
O    -8.571000000    -2.466000000    -1.994000000
H    -7.973000000    -2.563000000    -1.252000000
H    -8.572000000    -1.527000000    -2.179000000
O    -7.751000000    -0.214000000     4.896000000
H    -7.864000000    -0.635000000     5.748000000
H    -8.402000000     0.488000000     4.887000000
O    -2.433000000    -1.991000000     6.649000000
H    -2.384000000    -2.051000000     5.695000000
H    -2.769000000    -1.110000000     6.817000000
O    -6.157000000    -1.594000000     2.884000000
H    -5.453000000    -1.394000000     2.267000000
H    -6.268000000    -0.789000000     3.391000000
O    -1.774000000    -6.166000000     4.977000000
H    -2.018000000    -5.242000000     4.924000000
H    -0.873000000    -6.195000000     4.656000000
O    -4.685000000    -4.303000000     1.303000000
H    -4.538000000    -4.924000000     2.017000000
H    -3.919000000    -3.729000000     1.324000000
O    -7.873000000     2.347000000     1.706000000
H    -8.588000000     2.469000000     1.081000000
H    -8.311000000     2.198000000     2.544000000
O    -5.262000000     1.399000000     2.308000000
H    -4.945000000     0.533000000     2.050000000
H    -6.060000000     1.525000000     1.794000000
