215
-1428.06969
C     0.135000000     3.499000000     4.049000000
H     0.284000000     4.499000000     3.651000000
C     0.868000000     2.372000000     3.672000000
C     0.546000000     1.110000000     4.147000000
H     1.090000000     0.221000000     3.838000000
C     2.009000000     2.541000000     2.620000000
O     2.189000000     3.924000000     2.243000000
H     1.752000000     1.902000000     1.763000000
O     3.282000000     1.957000000     3.032000000
C     3.939000000     1.224000000     2.130000000
C     4.032000000    -0.131000000     2.335000000
H     3.528000000    -0.629000000     3.158000000
C     4.558000000    -0.897000000     1.308000000
O     4.309000000    -2.249000000     1.459000000
C     5.032000000    -0.372000000     0.097000000
C     5.498000000    -1.296000000    -0.994000000
H     6.388000000    -0.872000000    -1.464000000
C     4.374000000    -1.668000000    -1.875000000
C     3.918000000    -0.905000000    -2.947000000
H     4.398000000     0.054000000    -3.119000000
H     5.941000000    -2.163000000    -0.501000000
C     5.028000000     0.994000000    -0.100000000
H     5.502000000     1.366000000    -1.005000000
C     4.473000000     1.803000000     0.906000000
C     4.577000000     3.300000000     0.686000000
H     5.367000000     3.555000000    -0.022000000
H     4.708000000     3.918000000     1.577000000
C     3.228000000     3.909000000     0.073000000
C     2.988000000     3.861000000    -1.334000000
H     3.823000000     3.596000000    -1.979000000
C     2.165000000     4.238000000     0.887000000
C     0.924000000     4.608000000     0.444000000
H     0.041000000     4.752000000     1.061000000
C     0.739000000     4.500000000    -0.953000000
O    -0.532000000     4.665000000    -1.339000000
C    -1.244000000     3.470000000    -1.726000000
C    -2.617000000     3.434000000    -1.052000000
C    -3.444000000     2.354000000    -1.347000000
H    -3.203000000     1.645000000    -2.136000000
C    -2.935000000     4.266000000     0.034000000
H    -2.371000000     5.179000000     0.205000000
O    -1.276000000     3.416000000    -3.170000000
H    -0.608000000     2.595000000    -1.525000000
C     1.711000000     4.218000000    -1.904000000
C     1.518000000     4.270000000    -3.388000000
H     2.448000000     4.584000000    -3.866000000
H     0.744000000     4.997000000    -3.645000000
C     1.006000000     2.946000000    -3.913000000
C     1.910000000     1.984000000    -4.165000000
H     2.965000000     2.245000000    -4.201000000
C    -0.380000000     2.625000000    -3.896000000
C    -0.850000000     1.377000000    -4.299000000
H    -1.904000000     1.113000000    -4.338000000
C     0.102000000     0.437000000    -4.653000000
O    -0.333000000    -0.878000000    -4.907000000
C    -0.187000000    -1.869000000    -3.826000000
C    -1.501000000    -2.676000000    -3.650000000
C    -2.721000000    -2.201000000    -4.097000000
H    -2.672000000    -1.269000000    -4.655000000
C    -1.466000000    -3.910000000    -3.048000000
H    -0.525000000    -4.176000000    -2.575000000
O     0.961000000    -2.763000000    -3.980000000
H    -0.130000000    -1.390000000    -2.837000000
C     1.463000000     0.669000000    -4.504000000
C     2.435000000    -0.426000000    -4.903000000
H     3.268000000     0.133000000    -5.335000000
H     2.132000000    -1.056000000    -5.741000000
C     2.808000000    -1.280000000    -3.712000000
C     2.074000000    -2.416000000    -3.335000000
C     2.444000000    -3.239000000    -2.302000000
H     1.788000000    -4.045000000    -1.985000000
C     3.561000000    -2.849000000    -1.573000000
O     3.848000000    -3.561000000    -0.470000000
C     3.270000000    -2.851000000     0.687000000
H     2.490000000    -2.153000000     0.349000000
C     2.443000000    -3.912000000     1.573000000
C     2.115000000    -3.658000000     2.920000000
H     2.547000000    -2.865000000     3.524000000
C     1.897000000    -4.992000000     0.875000000
H     2.124000000    -5.228000000    -0.161000000
C     1.103000000    -5.916000000     1.566000000
O     0.692000000    -7.054000000     1.049000000
C     0.765000000    -5.672000000     2.865000000
H     0.078000000    -6.377000000     3.325000000
C     1.208000000    -4.553000000     3.578000000
O     0.878000000    -4.418000000     4.991000000
C     0.773000000    -3.275000000     5.735000000
C     0.150000000    -2.212000000     5.132000000
H    -0.082000000    -2.284000000     4.072000000
C     1.243000000    -3.203000000     7.069000000
H     1.630000000    -4.097000000     7.551000000
C     1.072000000    -2.054000000     7.798000000
H     1.433000000    -1.999000000     8.822000000
C     0.429000000    -0.977000000     7.275000000
H     0.347000000    -0.014000000     7.772000000
C    -0.025000000    -1.099000000     5.905000000
O    -0.949000000    -0.188000000     5.563000000
C    -0.629000000     0.991000000     5.002000000
C    -1.354000000     2.118000000     5.287000000
H    -2.148000000     2.018000000     6.022000000
C    -0.944000000     3.375000000     4.848000000
O    -1.556000000     4.528000000     5.322000000
C    -2.258000000     5.339000000     4.439000000
C    -2.977000000     4.745000000     3.444000000
H    -2.862000000     3.675000000     3.285000000
C    -2.389000000     6.680000000     4.791000000
H    -1.950000000     7.151000000     5.667000000
C    -3.359000000     7.443000000     4.120000000
H    -3.477000000     8.500000000     4.342000000
C    -3.970000000     6.887000000     2.954000000
H    -4.630000000     7.586000000     2.447000000
C    -3.868000000     5.519000000     2.686000000
O    -4.544000000     4.921000000     1.643000000
C    -4.003000000     3.924000000     0.846000000
C    -4.823000000     2.796000000     0.541000000
H    -5.658000000     2.375000000     1.095000000
C    -4.645000000     2.148000000    -0.654000000
O    -5.506000000     1.077000000    -0.925000000
C    -5.633000000     0.675000000    -2.236000000
C    -5.320000000    -0.583000000    -2.534000000
H    -4.981000000    -1.293000000    -1.784000000
C    -6.071000000     1.526000000    -3.176000000
H    -6.314000000     2.559000000    -2.942000000
C    -6.148000000     1.118000000    -4.497000000
H    -6.441000000     1.827000000    -5.267000000
C    -5.878000000    -0.228000000    -4.920000000
H    -6.060000000    -0.556000000    -5.940000000
C    -5.502000000    -1.056000000    -3.869000000
O    -5.136000000    -2.366000000    -4.081000000
C    -3.933000000    -2.840000000    -3.786000000
C    -3.871000000    -4.094000000    -3.142000000
H    -4.783000000    -4.680000000    -3.059000000
C    -2.613000000    -4.633000000    -2.827000000
O    -2.459000000    -5.932000000    -2.385000000
C    -1.262000000    -6.537000000    -2.047000000
C    -0.359000000    -7.048000000    -2.944000000
H    -0.561000000    -6.898000000    -4.002000000
C     0.846000000    -7.588000000    -2.578000000
H     1.616000000    -7.808000000    -3.313000000
C     1.097000000    -7.659000000    -1.178000000
H     2.087000000    -7.883000000    -0.788000000
C     0.237000000    -7.143000000    -0.245000000
C    -0.971000000    -6.562000000    -0.696000000
H    -1.622000000    -6.136000000     0.063000000
C    -1.157000000    -1.840000000     0.534000000
H    -1.208000000    -2.921000000     0.425000000
C    -0.127000000    -1.221000000    -0.110000000
H     0.574000000    -1.779000000    -0.726000000
C     0.085000000     0.130000000    -0.018000000
H     0.902000000     0.581000000    -0.598000000
C    -0.719000000     0.842000000     0.875000000
H    -0.589000000     1.918000000     0.955000000
C    -1.781000000     0.198000000     1.512000000
H    -2.347000000     0.748000000     2.259000000
C    -2.045000000    -1.147000000     1.418000000
C    -2.995000000    -1.947000000     2.261000000
O    -3.740000000    -1.381000000     3.040000000
O    -3.082000000    -3.133000000     2.115000000
O    -8.625000000    -0.534000000     1.715000000
H    -7.722000000    -0.630000000     2.019000000
H    -8.958000000     0.225000000     2.194000000
O    -3.117000000    -7.880000000     5.062000000
H    -2.269000000    -8.054000000     4.655000000
H    -3.034000000    -6.995000000     5.418000000
O    -4.564000000     0.852000000     4.709000000
H    -5.192000000     0.684000000     5.412000000
H    -4.498000000     0.018000000     4.242000000
O    -4.612000000    -7.402000000     1.735000000
H    -3.855000000    -6.847000000     1.925000000
H    -4.432000000    -8.219000000     2.199000000
O    -7.636000000    -5.245000000     0.849000000
H    -7.764000000    -5.349000000    -0.094000000
H    -6.786000000    -4.814000000     0.930000000
O    -6.488000000    -7.429000000     4.304000000
H    -5.822000000    -7.120000000     3.690000000
H    -6.147000000    -7.193000000     5.166000000
O    -6.386000000     2.672000000     4.012000000
H    -6.454000000     2.860000000     4.948000000
H    -5.839000000     1.888000000     3.965000000
O    -2.890000000    -5.655000000     2.869000000
H    -2.668000000    -4.791000000     2.524000000
H    -3.411000000    -5.474000000     3.652000000
O    -2.238000000    -4.440000000     8.041000000
H    -2.496000000    -3.687000000     7.510000000
H    -2.100000000    -4.080000000     8.917000000
O    -5.735000000    -3.417000000     1.132000000
H    -4.985000000    -3.556000000     1.710000000
H    -5.793000000    -2.466000000     1.039000000
O    -0.987000000    -6.402000000     6.145000000
H    -0.848000000    -5.579000000     5.676000000
H    -1.512000000    -6.157000000     6.907000000
O    -6.337000000    -1.246000000     2.993000000
H    -6.501000000    -1.352000000     3.930000000
H    -5.406000000    -1.442000000     2.889000000
O    -7.144000000    -2.135000000     5.672000000
H    -6.275000000    -2.485000000     5.474000000
H    -6.973000000    -1.288000000     6.084000000
O    -8.507000000    -3.509000000     2.997000000
H    -8.161000000    -2.663000000     2.712000000
H    -8.210000000    -4.127000000     2.330000000
O    -6.685000000     0.335000000     6.423000000
H    -6.624000000     0.552000000     7.354000000
H    -7.435000000     0.840000000     6.108000000
O    -4.465000000    -2.252000000     5.425000000
H    -4.045000000    -1.980000000     4.609000000
H    -3.901000000    -1.901000000     6.113000000
O    -9.483000000     0.153000000    -0.716000000
H    -9.013000000    -0.339000000    -1.390000000
H    -8.962000000     0.030000000     0.077000000
O    -4.293000000    -5.142000000     4.993000000
H    -4.747000000    -5.654000000     5.663000000
H    -4.569000000    -4.240000000     5.152000000
O    -2.929000000    -0.776000000     7.178000000
H    -2.024000000    -0.615000000     6.911000000
H    -3.317000000     0.097000000     7.246000000
