215
-1472.12844
C    -0.259000000     2.853000000     3.838000000
H    -0.302000000     3.861000000     3.433000000
C     0.745000000     1.946000000     3.496000000
C     0.708000000     0.636000000     3.931000000
H     1.457000000    -0.069000000     3.580000000
C     1.773000000     2.408000000     2.508000000
O     1.752000000     3.854000000     2.306000000
H     1.484000000     1.888000000     1.583000000
O     3.088000000     1.997000000     2.899000000
C     3.844000000     1.509000000     1.832000000
C     3.994000000     0.082000000     1.919000000
H     3.700000000    -0.466000000     2.810000000
C     4.646000000    -0.654000000     0.922000000
O     4.720000000    -2.005000000     1.056000000
C     5.038000000     0.000000000    -0.213000000
C     5.512000000    -0.708000000    -1.473000000
H     6.258000000    -0.143000000    -2.036000000
C     4.349000000    -1.266000000    -2.288000000
C     3.823000000    -0.410000000    -3.294000000
H     4.251000000     0.585000000    -3.389000000
H     6.181000000    -1.537000000    -1.235000000
C     4.893000000     1.429000000    -0.281000000
H     5.091000000     1.915000000    -1.233000000
C     4.175000000     2.113000000     0.629000000
C     3.984000000     3.654000000     0.509000000
H     4.731000000     4.035000000    -0.190000000
H     4.202000000     4.060000000     1.499000000
C     2.617000000     3.959000000     0.019000000
C     2.373000000     4.208000000    -1.304000000
H     3.211000000     4.172000000    -1.995000000
C     1.533000000     4.122000000     0.938000000
C     0.247000000     4.494000000     0.590000000
H    -0.571000000     4.507000000     1.305000000
C     0.028000000     4.678000000    -0.775000000
O    -1.278000000     4.798000000    -1.196000000
C    -1.921000000     3.607000000    -1.532000000
C    -3.284000000     3.532000000    -0.847000000
C    -4.143000000     2.531000000    -1.182000000
H    -3.909000000     1.945000000    -2.067000000
C    -3.588000000     4.363000000     0.263000000
H    -2.918000000     5.177000000     0.528000000
O    -1.917000000     3.514000000    -2.995000000
H    -1.303000000     2.781000000    -1.151000000
C     1.053000000     4.549000000    -1.745000000
C     0.716000000     4.595000000    -3.212000000
H     1.541000000     5.101000000    -3.717000000
H    -0.076000000     5.337000000    -3.337000000
C     0.404000000     3.230000000    -3.658000000
C     1.405000000     2.431000000    -4.210000000
H     2.417000000     2.828000000    -4.194000000
C    -0.926000000     2.791000000    -3.613000000
C    -1.200000000     1.573000000    -4.165000000
H    -2.250000000     1.294000000    -4.177000000
C    -0.260000000     0.668000000    -4.669000000
O    -0.627000000    -0.675000000    -4.869000000
C    -0.343000000    -1.520000000    -3.742000000
C    -1.491000000    -2.471000000    -3.494000000
C    -2.783000000    -2.004000000    -3.728000000
H    -2.950000000    -0.973000000    -4.028000000
C    -1.233000000    -3.672000000    -2.716000000
H    -0.229000000    -3.942000000    -2.401000000
O     0.797000000    -2.346000000    -4.249000000
H    -0.059000000    -0.871000000    -2.901000000
C     1.115000000     1.119000000    -4.683000000
C     2.189000000     0.113000000    -5.116000000
H     3.002000000     0.588000000    -5.668000000
H     1.764000000    -0.487000000    -5.923000000
C     2.671000000    -0.834000000    -4.000000000
C     2.000000000    -2.012000000    -3.677000000
C     2.550000000    -2.884000000    -2.731000000
H     2.152000000    -3.826000000    -2.364000000
C     3.717000000    -2.539000000    -2.062000000
O     4.048000000    -3.301000000    -0.931000000
C     3.659000000    -2.836000000     0.409000000
H     2.816000000    -2.159000000     0.204000000
C     3.079000000    -3.983000000     1.282000000
C     2.986000000    -3.743000000     2.663000000
H     3.314000000    -2.827000000     3.149000000
C     2.673000000    -5.171000000     0.660000000
H     2.782000000    -5.405000000    -0.396000000
C     1.982000000    -6.081000000     1.495000000
O     1.347000000    -7.191000000     1.031000000
C     2.041000000    -5.962000000     2.860000000
H     1.582000000    -6.747000000     3.455000000
C     2.525000000    -4.818000000     3.488000000
O     2.537000000    -4.756000000     4.885000000
C     2.308000000    -3.573000000     5.578000000
C     1.302000000    -2.668000000     5.190000000
H     0.865000000    -2.769000000     4.200000000
C     2.827000000    -3.335000000     6.847000000
H     3.470000000    -4.111000000     7.255000000
C     2.395000000    -2.268000000     7.632000000
H     2.801000000    -2.196000000     8.637000000
C     1.362000000    -1.408000000     7.238000000
H     1.084000000    -0.547000000     7.840000000
C     0.821000000    -1.667000000     5.988000000
O    -0.238000000    -0.944000000     5.498000000
C    -0.229000000     0.305000000     4.947000000
C    -1.133000000     1.209000000     5.372000000
H    -1.835000000     0.938000000     6.156000000
C    -1.141000000     2.489000000     4.817000000
O    -1.998000000     3.385000000     5.372000000
C    -2.619000000     4.484000000     4.738000000
C    -3.653000000     4.264000000     3.780000000
H    -3.890000000     3.236000000     3.516000000
C    -2.201000000     5.796000000     5.027000000
H    -1.429000000     6.004000000     5.763000000
C    -2.877000000     6.891000000     4.440000000
H    -2.522000000     7.896000000     4.657000000
C    -3.932000000     6.660000000     3.466000000
H    -4.427000000     7.524000000     3.031000000
C    -4.227000000     5.357000000     3.095000000
O    -5.095000000     5.099000000     1.998000000
C    -4.794000000     4.180000000     0.992000000
C    -5.659000000     3.230000000     0.593000000
H    -6.620000000     3.133000000     1.091000000
C    -5.372000000     2.401000000    -0.498000000
O    -6.294000000     1.476000000    -0.976000000
C    -6.058000000     0.792000000    -2.175000000
C    -5.719000000    -0.565000000    -2.253000000
H    -5.497000000    -1.151000000    -1.366000000
C    -6.292000000     1.514000000    -3.297000000
H    -6.610000000     2.548000000    -3.196000000
C    -6.044000000     0.912000000    -4.528000000
H    -6.337000000     1.485000000    -5.405000000
C    -5.859000000    -0.466000000    -4.662000000
H    -5.764000000    -0.929000000    -5.642000000
C    -5.501000000    -1.133000000    -3.516000000
O    -5.175000000    -2.471000000    -3.557000000
C    -3.834000000    -2.924000000    -3.486000000
C    -3.580000000    -4.151000000    -2.966000000
H    -4.452000000    -4.775000000    -2.786000000
C    -2.344000000    -4.553000000    -2.444000000
O    -2.236000000    -5.858000000    -1.862000000
C    -1.031000000    -6.503000000    -1.660000000
C    -0.425000000    -7.169000000    -2.758000000
H    -0.926000000    -6.985000000    -3.704000000
C     0.804000000    -7.867000000    -2.574000000
H     1.309000000    -8.273000000    -3.446000000
C     1.421000000    -7.791000000    -1.310000000
H     2.439000000    -8.168000000    -1.254000000
C     0.789000000    -7.149000000    -0.244000000
C    -0.430000000    -6.571000000    -0.443000000
H    -1.094000000    -6.403000000     0.401000000
C    -0.691000000    -2.161000000     0.705000000
H    -0.505000000    -3.232000000     0.738000000
C    -0.125000000    -1.410000000    -0.300000000
H     0.421000000    -1.958000000    -1.063000000
C    -0.211000000    -0.027000000    -0.362000000
H     0.190000000     0.540000000    -1.137000000
C    -0.871000000     0.614000000     0.702000000
H    -0.901000000     1.700000000     0.726000000
C    -1.562000000    -0.133000000     1.684000000
H    -2.118000000     0.394000000     2.455000000
C    -1.397000000    -1.529000000     1.731000000
C    -2.167000000    -2.207000000     2.840000000
O    -3.004000000    -1.646000000     3.553000000
O    -2.042000000    -3.430000000     2.968000000
O    -6.140000000     0.580000000     2.954000000
H    -5.722000000    -0.079000000     2.401000000
H    -6.919000000     0.145000000     3.300000000
O    -0.014000000    -6.072000000     5.642000000
H     0.875000000    -5.735000000     5.528000000
H     0.079000000    -6.789000000     6.269000000
O    -4.157000000     0.868000000     4.924000000
H    -4.745000000     1.127000000     4.214000000
H    -3.627000000     0.163000000     4.551000000
O    -3.531000000    -7.628000000     2.769000000
H    -3.783000000    -7.336000000     3.645000000
H    -2.770000000    -7.092000000     2.547000000
O    -5.976000000    -5.120000000     2.989000000
H    -5.515000000    -4.970000000     2.164000000
H    -6.010000000    -4.257000000     3.404000000
O    -5.743000000    -6.007000000    -0.536000000
H    -6.471000000    -5.389000000    -0.473000000
H    -5.040000000    -5.601000000    -0.027000000
O    -6.378000000    -3.287000000     7.157000000
H    -6.510000000    -3.235000000     6.210000000
H    -7.001000000    -2.659000000     7.521000000
O    -1.231000000    -5.947000000     3.127000000
H    -1.479000000    -5.023000000     3.092000000
H    -0.725000000    -6.028000000     3.935000000
O    -2.093000000    -2.058000000     8.781000000
H    -2.437000000    -1.918000000     7.899000000
H    -1.647000000    -1.238000000     8.997000000
O    -3.971000000    -4.414000000     1.034000000
H    -3.334000000    -3.992000000     0.457000000
H    -3.526000000    -4.472000000     1.879000000
O    -0.711000000    -4.517000000     8.484000000
H    -0.239000000    -4.579000000     9.314000000
H    -0.923000000    -3.587000000     8.397000000
O    -5.072000000    -1.457000000     1.661000000
H    -5.184000000    -2.404000000     1.582000000
H    -4.342000000    -1.353000000     2.271000000
O    -4.640000000     0.228000000     7.453000000
H    -4.812000000     0.499000000     6.551000000
H    -4.000000000    -0.479000000     7.372000000
O    -5.663000000    -2.687000000     4.535000000
H    -4.802000000    -2.745000000     4.948000000
H    -5.821000000    -1.747000000     4.443000000
O    -8.538000000    -3.442000000     2.214000000
H    -8.053000000    -2.921000000     2.854000000
H    -9.163000000    -2.828000000     1.829000000
O    -6.719000000    -5.905000000     5.515000000
H    -6.475000000    -5.878000000     4.589000000
H    -5.970000000    -5.522000000     5.971000000
O    -2.132000000    -4.222000000     5.561000000
H    -2.057000000    -4.030000000     4.627000000
H    -1.474000000    -4.899000000     5.720000000
O    -3.748000000    -6.253000000     5.498000000
H    -3.420000000    -5.363000000     5.369000000
H    -3.392000000    -6.519000000     6.346000000
O    -2.859000000    -1.826000000     6.220000000
H    -2.784000000    -2.780000000     6.213000000
H    -2.653000000    -1.563000000     5.323000000
