215
-1441.71389
C     0.562000000     4.026000000     3.599000000
H     0.681000000     4.790000000     2.834000000
C     1.426000000     2.929000000     3.722000000
C     1.212000000     2.027000000     4.707000000
H     1.921000000     1.205000000     4.657000000
C     2.416000000     2.688000000     2.606000000
O     2.744000000     3.933000000     1.894000000
H     2.025000000     2.024000000     1.821000000
O     3.646000000     2.099000000     2.961000000
C     4.040000000     1.091000000     2.164000000
C     3.783000000    -0.211000000     2.556000000
H     3.202000000    -0.392000000     3.457000000
C     4.166000000    -1.323000000     1.832000000
O     3.680000000    -2.554000000     2.180000000
C     4.840000000    -1.124000000     0.613000000
C     5.092000000    -2.242000000    -0.345000000
H     6.047000000    -2.151000000    -0.866000000
C     3.878000000    -2.535000000    -1.230000000
C     3.713000000    -1.826000000    -2.449000000
H     4.401000000    -1.045000000    -2.759000000
H     5.382000000    -3.110000000     0.252000000
C     5.147000000     0.168000000     0.236000000
H     5.590000000     0.301000000    -0.749000000
C     4.681000000     1.262000000     0.928000000
C     4.899000000     2.682000000     0.389000000
H     5.785000000     2.545000000    -0.235000000
H     5.306000000     3.310000000     1.185000000
C     3.654000000     3.311000000    -0.262000000
C     3.439000000     3.201000000    -1.610000000
H     4.066000000     2.586000000    -2.251000000
C     2.614000000     3.868000000     0.501000000
C     1.456000000     4.294000000    -0.044000000
H     0.622000000     4.716000000     0.511000000
C     1.276000000     4.192000000    -1.438000000
O     0.025000000     4.387000000    -2.039000000
C    -0.744000000     3.248000000    -2.431000000
C    -2.190000000     3.446000000    -1.946000000
C    -3.131000000     2.552000000    -2.355000000
H    -2.795000000     1.712000000    -2.957000000
C    -2.510000000     4.382000000    -0.993000000
H    -1.759000000     4.936000000    -0.435000000
O    -0.724000000     3.042000000    -3.798000000
H    -0.401000000     2.323000000    -1.945000000
C     2.328000000     3.605000000    -2.225000000
C     2.211000000     3.427000000    -3.772000000
H     3.197000000     3.393000000    -4.241000000
H     1.629000000     4.209000000    -4.264000000
C     1.516000000     2.111000000    -4.075000000
C     2.279000000     0.956000000    -4.367000000
H     3.365000000     0.977000000    -4.366000000
C     0.130000000     2.130000000    -4.250000000
C    -0.485000000     0.881000000    -4.411000000
H    -1.570000000     0.823000000    -4.385000000
C     0.233000000    -0.314000000    -4.591000000
O    -0.431000000    -1.457000000    -4.590000000
C    -0.542000000    -2.270000000    -3.369000000
C    -1.928000000    -2.870000000    -3.215000000
C    -3.002000000    -2.427000000    -4.065000000
H    -2.879000000    -1.623000000    -4.786000000
C    -2.179000000    -3.778000000    -2.162000000
H    -1.324000000    -4.057000000    -1.552000000
O     0.511000000    -3.229000000    -3.467000000
H    -0.438000000    -1.713000000    -2.426000000
C     1.634000000    -0.238000000    -4.542000000
C     2.519000000    -1.460000000    -4.593000000
H     3.520000000    -1.300000000    -4.998000000
H     2.021000000    -2.183000000    -5.241000000
C     2.566000000    -2.044000000    -3.233000000
C     1.647000000    -2.999000000    -2.773000000
C     1.778000000    -3.668000000    -1.567000000
H     0.959000000    -4.272000000    -1.186000000
C     2.849000000    -3.333000000    -0.783000000
O     2.853000000    -3.916000000     0.482000000
C     2.493000000    -3.068000000     1.518000000
H     1.978000000    -2.186000000     1.110000000
C     1.561000000    -3.833000000     2.489000000
C     1.505000000    -3.418000000     3.860000000
H     2.147000000    -2.615000000     4.212000000
C     0.667000000    -4.871000000     2.050000000
H     0.699000000    -5.180000000     1.009000000
C    -0.204000000    -5.451000000     2.918000000
O    -0.892000000    -6.623000000     2.552000000
C    -0.200000000    -5.111000000     4.260000000
H    -0.828000000    -5.669000000     4.950000000
C     0.600000000    -4.034000000     4.726000000
O     0.384000000    -3.624000000     6.022000000
C     0.830000000    -2.437000000     6.551000000
C     0.082000000    -1.324000000     6.174000000
H    -0.837000000    -1.393000000     5.597000000
C     1.860000000    -2.409000000     7.490000000
H     2.384000000    -3.349000000     7.639000000
C     2.274000000    -1.189000000     7.983000000
H     3.185000000    -1.172000000     8.576000000
C     1.576000000    -0.005000000     7.661000000
H     1.905000000     0.982000000     7.978000000
C     0.458000000    -0.091000000     6.720000000
O    -0.285000000     1.007000000     6.427000000
C     0.073000000     2.076000000     5.494000000
C    -0.769000000     3.152000000     5.336000000
H    -1.686000000     3.316000000     5.896000000
C    -0.510000000     4.149000000     4.423000000
O    -1.453000000     5.193000000     4.291000000
C    -1.783000000     5.818000000     3.107000000
C    -2.806000000     5.220000000     2.377000000
H    -3.128000000     4.187000000     2.473000000
C    -1.340000000     7.088000000     2.853000000
H    -0.670000000     7.596000000     3.542000000
C    -1.786000000     7.767000000     1.741000000
H    -1.405000000     8.758000000     1.511000000
C    -2.760000000     7.209000000     0.924000000
H    -2.937000000     7.730000000    -0.014000000
C    -3.301000000     5.955000000     1.264000000
O    -4.193000000     5.359000000     0.444000000
C    -3.862000000     4.562000000    -0.581000000
C    -4.837000000     3.653000000    -1.136000000
H    -5.882000000     3.645000000    -0.836000000
C    -4.468000000     2.766000000    -2.067000000
O    -5.460000000     1.871000000    -2.393000000
C    -5.463000000     1.139000000    -3.560000000
C    -5.396000000    -0.241000000    -3.502000000
H    -5.366000000    -0.693000000    -2.514000000
C    -5.428000000     1.783000000    -4.808000000
H    -5.303000000     2.863000000    -4.785000000
C    -5.392000000     1.045000000    -5.988000000
H    -5.484000000     1.553000000    -6.945000000
C    -5.317000000    -0.336000000    -5.926000000
H    -5.214000000    -0.955000000    -6.814000000
C    -5.345000000    -0.973000000    -4.625000000
O    -5.280000000    -2.345000000    -4.485000000
C    -4.313000000    -2.902000000    -3.768000000
C    -4.496000000    -3.840000000    -2.790000000
H    -5.515000000    -4.204000000    -2.688000000
C    -3.460000000    -4.343000000    -1.984000000
O    -3.739000000    -5.305000000    -1.007000000
C    -2.791000000    -6.119000000    -0.603000000
C    -2.164000000    -7.076000000    -1.438000000
H    -2.452000000    -7.167000000    -2.482000000
C    -1.140000000    -7.840000000    -0.898000000
H    -0.420000000    -8.221000000    -1.617000000
C    -0.752000000    -7.748000000     0.415000000
H     0.184000000    -8.164000000     0.778000000
C    -1.345000000    -6.796000000     1.291000000
C    -2.332000000    -5.953000000     0.718000000
H    -2.812000000    -5.287000000     1.430000000
C    -1.001000000    -1.359000000     1.556000000
H    -0.956000000    -2.406000000     1.845000000
C    -0.099000000    -0.967000000     0.505000000
H     0.530000000    -1.638000000    -0.074000000
C    -0.046000000     0.408000000     0.192000000
H     0.634000000     0.816000000    -0.574000000
C    -0.903000000     1.291000000     0.864000000
H    -0.909000000     2.362000000     0.679000000
C    -1.683000000     0.850000000     1.923000000
H    -2.221000000     1.651000000     2.424000000
C    -1.687000000    -0.480000000     2.319000000
C    -2.627000000    -0.995000000     3.327000000
O    -3.312000000    -0.232000000     4.068000000
O    -3.008000000    -2.180000000     3.230000000
O    -5.749000000    -0.897000000     3.182000000
H    -4.909000000    -0.600000000     3.531000000
H    -5.678000000    -0.759000000     2.237000000
O    -7.382000000    -0.425000000     0.234000000
H    -7.804000000     0.038000000     0.957000000
H    -7.436000000     0.183000000    -0.504000000
O    -4.509000000     1.426000000     5.851000000
H    -5.390000000     1.170000000     5.579000000
H    -3.937000000     1.082000000     5.165000000
O    -5.753000000     3.949000000     5.442000000
H    -5.582000000     3.104000000     5.858000000
H    -5.103000000     4.539000000     5.822000000
O    -7.117000000    -4.442000000     6.397000000
H    -6.326000000    -3.988000000     6.689000000
H    -7.086000000    -4.386000000     5.442000000
O    -3.034000000    -4.777000000     6.856000000
H    -3.332000000    -3.996000000     7.322000000
H    -2.182000000    -4.977000000     7.245000000
O    -3.878000000    -4.466000000     3.958000000
H    -3.386000000    -3.684000000     3.707000000
H    -3.551000000    -4.684000000     4.831000000
O    -5.385000000    -5.505000000     1.825000000
H    -5.653000000    -4.789000000     1.249000000
H    -5.152000000    -5.075000000     2.648000000
O    -7.628000000    -0.613000000     6.038000000
H    -7.863000000    -1.062000000     6.850000000
H    -8.457000000    -0.269000000     5.705000000
O    -8.906000000    -3.942000000     1.784000000
H    -8.124000000    -4.284000000     1.351000000
H    -8.569000000    -3.449000000     2.532000000
O    -4.256000000    -7.305000000     4.410000000
H    -4.024000000    -6.393000000     4.235000000
H    -5.204000000    -7.340000000     4.280000000
O    -1.886000000    -1.182000000     9.320000000
H    -2.832000000    -1.118000000     9.183000000
H    -1.536000000    -0.368000000     8.958000000
O    -3.909000000    -2.417000000     0.626000000
H    -3.076000000    -2.712000000     0.258000000
H    -3.702000000    -2.182000000     1.530000000
O    -4.476000000     1.743000000     8.659000000
H    -4.022000000     1.546000000     7.839000000
H    -3.873000000     1.454000000     9.343000000
O    -4.784000000    -1.592000000     6.047000000
H    -4.270000000    -1.431000000     5.256000000
H    -5.605000000    -1.123000000     5.900000000
O    -6.439000000     4.285000000     2.692000000
H    -5.629000000     4.095000000     2.218000000
H    -6.266000000     3.996000000     3.588000000
O    -6.431000000    -3.436000000     0.269000000
H    -5.592000000    -3.047000000     0.515000000
H    -6.925000000    -2.713000000    -0.119000000
O    -7.556000000    -2.871000000     4.048000000
H    -7.907000000    -2.668000000     4.915000000
H    -6.902000000    -2.190000000     3.889000000
O    -4.001000000    -2.630000000     8.286000000
H    -4.777000000    -2.654000000     8.846000000
H    -4.298000000    -2.198000000     7.485000000
