215
-1460.95801
C    -0.291000000     2.669000000     3.710000000
H    -0.436000000     3.534000000     3.067000000
C     0.927000000     1.941000000     3.564000000
C     1.120000000     0.728000000     4.321000000
H     1.965000000     0.056000000     4.196000000
C     1.951000000     2.181000000     2.451000000
O     1.927000000     3.619000000     2.088000000
H     1.613000000     1.633000000     1.559000000
O     3.383000000     2.064000000     2.760000000
C     3.932000000     1.339000000     1.792000000
C     3.875000000    -0.036000000     1.972000000
H     3.390000000    -0.471000000     2.843000000
C     4.355000000    -0.848000000     0.952000000
O     4.370000000    -2.185000000     1.159000000
C     4.870000000    -0.253000000    -0.244000000
C     5.403000000    -1.051000000    -1.359000000
H     6.130000000    -0.439000000    -1.898000000
C     4.225000000    -1.586000000    -2.239000000
C     3.771000000    -0.789000000    -3.313000000
H     4.263000000     0.159000000    -3.516000000
H     5.934000000    -1.912000000    -0.949000000
C     4.978000000     1.150000000    -0.328000000
H     5.348000000     1.578000000    -1.255000000
C     4.454000000     1.974000000     0.663000000
C     4.366000000     3.391000000     0.430000000
H     5.121000000     3.645000000    -0.317000000
H     4.652000000     3.930000000     1.336000000
C     2.996000000     3.840000000    -0.076000000
C     2.767000000     4.040000000    -1.441000000
H     3.588000000     3.854000000    -2.129000000
C     1.919000000     4.040000000     0.820000000
C     0.692000000     4.486000000     0.335000000
H    -0.134000000     4.603000000     1.033000000
C     0.566000000     4.709000000    -1.039000000
O    -0.714000000     4.956000000    -1.450000000
C    -1.565000000     3.865000000    -1.869000000
C    -2.957000000     4.138000000    -1.413000000
C    -4.004000000     3.518000000    -2.031000000
H    -3.829000000     2.852000000    -2.873000000
C    -3.255000000     4.796000000    -0.218000000
H    -2.433000000     5.181000000     0.380000000
O    -1.551000000     3.786000000    -3.292000000
H    -1.202000000     2.899000000    -1.488000000
C     1.548000000     4.470000000    -1.929000000
C     1.263000000     4.477000000    -3.429000000
H     2.117000000     4.692000000    -4.075000000
H     0.534000000     5.239000000    -3.712000000
C     0.672000000     3.070000000    -3.819000000
C     1.515000000     2.055000000    -4.242000000
H     2.566000000     2.294000000    -4.381000000
C    -0.686000000     2.846000000    -3.772000000
C    -1.227000000     1.574000000    -4.037000000
H    -2.259000000     1.320000000    -3.807000000
C    -0.331000000     0.543000000    -4.324000000
O    -0.779000000    -0.752000000    -4.485000000
C    -0.606000000    -1.691000000    -3.484000000
C    -1.872000000    -2.385000000    -2.927000000
C    -3.093000000    -1.718000000    -2.724000000
H    -3.152000000    -0.671000000    -3.009000000
C    -1.749000000    -3.593000000    -2.291000000
H    -0.754000000    -4.025000000    -2.214000000
O     0.505000000    -2.624000000    -3.802000000
H    -0.251000000    -1.097000000    -2.629000000
C     0.970000000     0.814000000    -4.583000000
C     1.894000000    -0.307000000    -5.037000000
H     2.688000000     0.024000000    -5.709000000
H     1.368000000    -0.992000000    -5.706000000
C     2.547000000    -1.134000000    -3.912000000
C     1.857000000    -2.272000000    -3.496000000
C     2.389000000    -3.167000000    -2.545000000
H     1.837000000    -4.068000000    -2.289000000
C     3.591000000    -2.818000000    -1.912000000
O     3.910000000    -3.574000000    -0.775000000
C     3.434000000    -3.091000000     0.535000000
H     2.556000000    -2.460000000     0.328000000
C     2.993000000    -4.261000000     1.441000000
C     3.039000000    -4.188000000     2.862000000
H     3.534000000    -3.343000000     3.333000000
C     2.317000000    -5.367000000     0.948000000
H     2.237000000    -5.325000000    -0.135000000
C     1.627000000    -6.307000000     1.780000000
O     0.699000000    -7.213000000     1.359000000
C     1.716000000    -6.205000000     3.165000000
H     1.275000000    -7.005000000     3.754000000
C     2.503000000    -5.171000000     3.737000000
O     2.453000000    -5.010000000     5.079000000
C     2.287000000    -3.761000000     5.658000000
C     1.269000000    -2.846000000     5.325000000
H     0.490000000    -2.972000000     4.577000000
C     3.125000000    -3.579000000     6.811000000
H     3.825000000    -4.348000000     7.128000000
C     2.883000000    -2.531000000     7.669000000
H     3.499000000    -2.265000000     8.524000000
C     1.960000000    -1.582000000     7.281000000
H     1.687000000    -0.756000000     7.932000000
C     1.207000000    -1.689000000     6.111000000
O     0.154000000    -0.820000000     6.034000000
C     0.100000000     0.281000000     5.188000000
C    -1.081000000     1.026000000     5.287000000
H    -1.820000000     0.595000000     5.957000000
C    -1.302000000     2.183000000     4.535000000
O    -2.481000000     2.871000000     4.653000000
C    -2.720000000     4.094000000     4.126000000
C    -3.511000000     4.256000000     2.999000000
H    -3.941000000     3.335000000     2.615000000
C    -2.163000000     5.233000000     4.660000000
H    -1.600000000     5.151000000     5.586000000
C    -2.441000000     6.545000000     4.179000000
H    -1.802000000     7.379000000     4.458000000
C    -3.232000000     6.611000000     3.033000000
H    -3.421000000     7.602000000     2.629000000
C    -3.828000000     5.519000000     2.475000000
O    -4.723000000     5.557000000     1.431000000
C    -4.544000000     4.918000000     0.281000000
C    -5.590000000     4.356000000    -0.383000000
H    -6.602000000     4.360000000     0.015000000
C    -5.307000000     3.679000000    -1.538000000
O    -6.347000000     3.120000000    -2.222000000
C    -6.167000000     1.896000000    -2.825000000
C    -6.048000000     0.682000000    -2.135000000
H    -5.885000000     0.696000000    -1.061000000
C    -6.237000000     1.879000000    -4.192000000
H    -6.498000000     2.820000000    -4.668000000
C    -6.047000000     0.696000000    -4.946000000
H    -6.144000000     0.773000000    -6.026000000
C    -5.841000000    -0.490000000    -4.208000000
H    -5.625000000    -1.441000000    -4.688000000
C    -5.779000000    -0.499000000    -2.846000000
O    -5.417000000    -1.610000000    -2.092000000
C    -4.240000000    -2.283000000    -2.158000000
C    -4.058000000    -3.586000000    -1.800000000
H    -4.925000000    -4.146000000    -1.459000000
C    -2.876000000    -4.292000000    -1.883000000
O    -2.876000000    -5.676000000    -1.566000000
C    -1.688000000    -6.396000000    -1.367000000
C    -1.053000000    -6.946000000    -2.467000000
H    -1.579000000    -6.954000000    -3.418000000
C     0.220000000    -7.438000000    -2.402000000
H     0.808000000    -7.797000000    -3.243000000
C     0.762000000    -7.484000000    -1.115000000
H     1.749000000    -7.905000000    -0.941000000
C     0.141000000    -7.065000000     0.051000000
C    -1.103000000    -6.390000000    -0.108000000
H    -1.516000000    -5.795000000     0.703000000
C    -0.086000000    -1.714000000     0.350000000
H     0.191000000    -2.753000000     0.188000000
C     0.558000000    -0.764000000    -0.422000000
H     1.334000000    -1.055000000    -1.125000000
C     0.187000000     0.553000000    -0.261000000
H     0.642000000     1.326000000    -0.750000000
C    -0.703000000     0.927000000     0.748000000
H    -1.044000000     1.955000000     0.837000000
C    -1.309000000     0.010000000     1.595000000
H    -1.970000000     0.350000000     2.387000000
C    -1.054000000    -1.326000000     1.340000000
C    -1.877000000    -2.421000000     1.935000000
O    -2.625000000    -2.208000000     2.851000000
O    -1.755000000    -3.569000000     1.575000000
O    -5.554000000    -0.651000000     1.574000000
H    -5.391000000    -1.578000000     1.749000000
H    -6.490000000    -0.605000000     1.378000000
O    -3.816000000    -5.194000000     7.282000000
H    -3.767000000    -4.688000000     8.093000000
H    -4.749000000    -5.377000000     7.170000000
O    -1.246000000    -7.771000000     4.892000000
H    -1.844000000    -7.108000000     4.548000000
H    -1.663000000    -8.076000000     5.697000000
O    -3.930000000     0.186000000     3.894000000
H    -4.506000000     0.238000000     3.131000000
H    -3.466000000    -0.645000000     3.786000000
O    -2.050000000    -8.943000000     2.365000000
H    -2.377000000    -9.608000000     2.971000000
H    -1.349000000    -8.504000000     2.848000000
O    -6.987000000    -5.148000000     3.963000000
H    -6.292000000    -5.804000000     4.015000000
H    -6.633000000    -4.469000000     3.388000000
O    -3.512000000    -8.828000000     0.149000000
H    -3.026000000    -9.151000000    -0.610000000
H    -2.884000000    -8.867000000     0.870000000
O    -5.609000000     2.426000000     4.488000000
H    -5.520000000     2.878000000     5.327000000
H    -4.764000000     1.996000000     4.356000000
O    -2.040000000    -5.599000000     3.195000000
H    -2.215000000    -4.866000000     2.604000000
H    -1.094000000    -5.575000000     3.334000000
O    -1.011000000    -2.289000000     8.349000000
H    -1.142000000    -2.620000000     7.461000000
H    -0.932000000    -1.341000000     8.241000000
O    -4.477000000    -6.018000000     1.614000000
H    -4.298000000    -6.305000000     0.719000000
H    -3.650000000    -6.150000000     2.078000000
O     0.412000000    -5.577000000     7.910000000
H     0.548000000    -4.659000000     8.145000000
H    -0.193000000    -5.547000000     7.168000000
O    -5.196000000    -3.423000000     2.105000000
H    -4.954000000    -4.251000000     1.689000000
H    -4.362000000    -2.977000000     2.255000000
O    -4.165000000     0.817000000     6.750000000
H    -3.872000000     0.622000000     5.860000000
H    -4.172000000    -0.032000000     7.192000000
O    -3.940000000    -2.635000000     5.376000000
H    -3.333000000    -2.515000000     4.645000000
H    -4.803000000    -2.459000000     5.002000000
O    -7.845000000    -3.507000000     0.911000000
H    -6.915000000    -3.308000000     1.024000000
H    -8.255000000    -2.656000000     0.760000000
O    -7.328000000    -2.475000000     5.244000000
H    -7.862000000    -3.159000000     4.839000000
H    -7.771000000    -1.658000000     5.014000000
O    -1.444000000    -4.043000000     6.032000000
H    -1.738000000    -3.568000000     5.255000000
H    -2.216000000    -4.527000000     6.324000000
O    -3.761000000    -1.818000000     7.904000000
H    -3.937000000    -2.399000000     7.164000000
H    -2.928000000    -2.129000000     8.260000000
