215
-1456.60191
C    -0.265000000     3.226000000     4.083000000
H     0.118000000     4.173000000     3.712000000
C     0.448000000     2.105000000     3.689000000
C     0.028000000     0.866000000     4.135000000
H     0.481000000     0.002000000     3.656000000
C     1.699000000     2.229000000     2.771000000
O     2.075000000     3.611000000     2.636000000
H     1.478000000     1.911000000     1.741000000
O     2.743000000     1.462000000     3.192000000
C     3.598000000     0.858000000     2.337000000
C     3.593000000    -0.553000000     2.438000000
H     3.143000000    -0.915000000     3.359000000
C     4.155000000    -1.276000000     1.480000000
O     3.884000000    -2.629000000     1.525000000
C     4.804000000    -0.709000000     0.376000000
C     5.351000000    -1.573000000    -0.631000000
H     6.216000000    -1.013000000    -0.992000000
C     4.425000000    -1.909000000    -1.758000000
C     4.179000000    -1.081000000    -2.851000000
H     4.786000000    -0.181000000    -2.918000000
H     5.702000000    -2.482000000    -0.138000000
C     4.893000000     0.695000000     0.303000000
H     5.369000000     1.182000000    -0.544000000
C     4.322000000     1.520000000     1.301000000
C     4.422000000     3.030000000     1.331000000
H     5.328000000     3.333000000     0.803000000
H     4.562000000     3.452000000     2.328000000
C     3.298000000     3.702000000     0.626000000
C     3.233000000     3.794000000    -0.733000000
H     4.031000000     3.491000000    -1.407000000
C     2.165000000     4.075000000     1.311000000
C     1.047000000     4.604000000     0.764000000
H     0.201000000     4.797000000     1.418000000
C     0.980000000     4.602000000    -0.633000000
O    -0.172000000     4.881000000    -1.352000000
C    -0.967000000     3.784000000    -1.646000000
C    -2.329000000     3.982000000    -1.157000000
C    -3.346000000     3.096000000    -1.590000000
H    -3.132000000     2.301000000    -2.299000000
C    -2.672000000     4.782000000    -0.088000000
H    -1.962000000     5.494000000     0.326000000
O    -0.942000000     3.626000000    -3.046000000
H    -0.459000000     2.949000000    -1.142000000
C     2.075000000     4.157000000    -1.395000000
C     1.997000000     4.228000000    -2.929000000
H     3.042000000     4.256000000    -3.245000000
H     1.401000000     5.038000000    -3.356000000
C     1.427000000     2.952000000    -3.442000000
C     2.324000000     1.979000000    -3.964000000
H     3.382000000     2.217000000    -4.046000000
C    -0.003000000     2.778000000    -3.544000000
C    -0.407000000     1.459000000    -3.916000000
H    -1.476000000     1.281000000    -4.006000000
C     0.491000000     0.483000000    -4.295000000
O    -0.040000000    -0.717000000    -4.589000000
C     0.078000000    -1.787000000    -3.700000000
C    -1.235000000    -2.508000000    -3.606000000
C    -2.392000000    -1.767000000    -3.618000000
H    -2.419000000    -0.694000000    -3.794000000
C    -1.210000000    -3.830000000    -3.186000000
H    -0.228000000    -4.241000000    -2.965000000
O     1.102000000    -2.699000000    -4.130000000
H     0.350000000    -1.322000000    -2.741000000
C     1.837000000     0.730000000    -4.305000000
C     2.793000000    -0.364000000    -4.790000000
H     3.603000000     0.210000000    -5.245000000
H     2.442000000    -0.830000000    -5.713000000
C     3.160000000    -1.337000000    -3.761000000
C     2.346000000    -2.467000000    -3.555000000
C     2.564000000    -3.285000000    -2.446000000
H     1.809000000    -4.041000000    -2.244000000
C     3.601000000    -2.983000000    -1.552000000
O     3.601000000    -3.792000000    -0.452000000
C     2.890000000    -3.234000000     0.712000000
H     2.215000000    -2.452000000     0.336000000
C     2.067000000    -4.337000000     1.509000000
C     1.631000000    -4.093000000     2.787000000
H     1.879000000    -3.153000000     3.273000000
C     1.731000000    -5.546000000     0.861000000
H     1.874000000    -5.636000000    -0.212000000
C     0.939000000    -6.468000000     1.477000000
O     0.499000000    -7.617000000     0.865000000
C     0.490000000    -6.240000000     2.802000000
H    -0.171000000    -6.978000000     3.249000000
C     0.881000000    -5.050000000     3.442000000
O     0.298000000    -4.788000000     4.618000000
C     0.267000000    -3.620000000     5.260000000
C    -0.691000000    -2.703000000     4.855000000
H    -1.307000000    -2.847000000     3.971000000
C     1.044000000    -3.419000000     6.396000000
H     1.580000000    -4.265000000     6.818000000
C     0.997000000    -2.224000000     7.145000000
H     1.615000000    -2.122000000     8.033000000
C     0.167000000    -1.253000000     6.610000000
H     0.101000000    -0.256000000     7.039000000
C    -0.727000000    -1.507000000     5.550000000
O    -1.563000000    -0.504000000     5.203000000
C    -1.139000000     0.768000000     4.865000000
C    -1.853000000     1.904000000     5.289000000
H    -2.646000000     1.827000000     6.028000000
C    -1.421000000     3.123000000     4.843000000
O    -1.998000000     4.246000000     5.307000000
C    -2.484000000     5.202000000     4.499000000
C    -3.102000000     4.901000000     3.300000000
H    -3.244000000     3.852000000     3.056000000
C    -2.497000000     6.445000000     5.048000000
H    -2.183000000     6.663000000     6.066000000
C    -3.156000000     7.465000000     4.296000000
H    -3.235000000     8.449000000     4.750000000
C    -3.726000000     7.199000000     3.062000000
H    -4.143000000     8.050000000     2.529000000
C    -3.679000000     5.951000000     2.486000000
O    -4.384000000     5.747000000     1.318000000
C    -4.006000000     4.838000000     0.363000000
C    -5.018000000     4.081000000    -0.209000000
H    -6.061000000     4.179000000     0.081000000
C    -4.643000000     3.189000000    -1.100000000
O    -5.676000000     2.601000000    -1.768000000
C    -5.556000000     1.770000000    -2.899000000
C    -5.437000000     0.435000000    -2.621000000
H    -5.302000000     0.068000000    -1.607000000
C    -5.482000000     2.278000000    -4.177000000
H    -5.658000000     3.339000000    -4.331000000
C    -4.973000000     1.465000000    -5.250000000
H    -4.829000000     1.816000000    -6.268000000
C    -4.840000000     0.098000000    -4.960000000
H    -4.442000000    -0.632000000    -5.659000000
C    -5.110000000    -0.422000000    -3.684000000
O    -4.877000000    -1.814000000    -3.438000000
C    -3.649000000    -2.435000000    -3.468000000
C    -3.615000000    -3.833000000    -3.297000000
H    -4.541000000    -4.381000000    -3.140000000
C    -2.433000000    -4.516000000    -2.982000000
O    -2.512000000    -5.826000000    -2.483000000
C    -1.437000000    -6.535000000    -2.090000000
C    -0.603000000    -7.132000000    -3.027000000
H    -0.811000000    -6.920000000    -4.073000000
C     0.492000000    -7.942000000    -2.630000000
H     1.164000000    -8.386000000    -3.360000000
C     0.686000000    -8.227000000    -1.338000000
H     1.585000000    -8.766000000    -1.049000000
C    -0.010000000    -7.504000000    -0.387000000
C    -1.088000000    -6.653000000    -0.748000000
H    -1.596000000    -6.124000000     0.054000000
C    -1.514000000    -2.197000000     0.053000000
H    -1.662000000    -3.266000000    -0.072000000
C    -0.407000000    -1.547000000    -0.446000000
H     0.333000000    -2.159000000    -0.957000000
C    -0.191000000    -0.203000000    -0.338000000
H     0.758000000     0.214000000    -0.729000000
C    -1.100000000     0.597000000     0.381000000
H    -0.854000000     1.632000000     0.602000000
C    -2.213000000    -0.024000000     0.917000000
H    -2.842000000     0.616000000     1.530000000
C    -2.451000000    -1.410000000     0.705000000
C    -3.678000000    -2.007000000     1.258000000
O    -4.411000000    -1.323000000     1.916000000
O    -4.050000000    -3.091000000     0.946000000
O    -7.744000000     1.310000000    -0.089000000
H    -7.353000000     0.438000000    -0.041000000
H    -7.027000000     1.880000000    -0.368000000
O    -6.214000000     0.095000000     5.518000000
H    -7.009000000    -0.293000000     5.884000000
H    -6.142000000     0.946000000     5.951000000
O    -9.593000000    -3.022000000     0.374000000
H   -10.024000000    -2.168000000     0.409000000
H    -8.948000000    -2.937000000    -0.328000000
O    -8.925000000    -1.901000000     2.914000000
H    -8.213000000    -2.335000000     3.383000000
H    -8.936000000    -2.322000000     2.054000000
O    -4.712000000     0.843000000     3.330000000
H    -5.293000000     0.511000000     4.014000000
H    -4.499000000     0.073000000     2.802000000
O    -7.995000000     0.888000000     2.719000000
H    -7.975000000     1.132000000     1.793000000
H    -7.896000000    -0.064000000     2.717000000
O    -3.576000000    -7.592000000     1.464000000
H    -3.709000000    -7.033000000     0.698000000
H    -3.235000000    -7.002000000     2.135000000
O    -6.984000000    -6.805000000    -0.484000000
H    -7.623000000    -6.235000000    -0.912000000
H    -6.157000000    -6.328000000    -0.548000000
O    -5.708000000     3.231000000     3.784000000
H    -6.485000000     2.852000000     3.372000000
H    -5.077000000     2.512000000     3.812000000
O    -2.999000000    -4.882000000     2.811000000
H    -3.127000000    -4.276000000     2.081000000
H    -3.552000000    -4.534000000     3.510000000
O    -3.862000000    -3.886000000     8.318000000
H    -3.249000000    -3.407000000     8.876000000
H    -4.112000000    -3.257000000     7.641000000
O    -4.426000000    -5.723000000    -0.304000000
H    -4.362000000    -4.855000000     0.096000000
H    -3.876000000    -5.666000000    -1.086000000
O    -6.536000000    -1.175000000     0.240000000
H    -6.922000000    -1.936000000     0.675000000
H    -5.633000000    -1.152000000     0.556000000
O    -7.475000000    -3.527000000     4.741000000
H    -6.618000000    -3.609000000     4.323000000
H    -7.763000000    -4.429000000     4.879000000
O    -6.460000000    -4.053000000     1.628000000
H    -6.325000000    -5.000000000     1.592000000
H    -5.616000000    -3.680000000     1.375000000
O    -4.626000000    -3.462000000     4.251000000
H    -4.622000000    -3.033000000     3.395000000
H    -4.640000000    -2.741000000     4.880000000
O    -4.418000000    -5.881000000     5.664000000
H    -5.310000000    -5.717000000     5.969000000
H    -4.162000000    -5.071000000     5.224000000
O    -7.731000000    -3.015000000    -1.925000000
H    -7.276000000    -2.366000000    -1.388000000
H    -7.222000000    -3.056000000    -2.734000000
O    -4.036000000    -1.792000000     6.452000000
H    -3.144000000    -1.462000000     6.341000000
H    -4.595000000    -1.031000000     6.291000000
