215
-1446.21155
C     4.740000000     1.646000000    -1.769000000
H     4.825000000     1.007000000    -2.644000000
C     4.610000000     1.158000000    -0.473000000
C     4.354000000     2.082000000     0.559000000
H     4.137000000     1.690000000     1.549000000
C     4.381000000    -0.261000000    -0.210000000
O     4.923000000    -1.057000000    -1.259000000
H     3.303000000    -0.480000000    -0.200000000
O     4.850000000    -0.663000000     1.151000000
C     4.011000000    -1.422000000     1.849000000
C     3.284000000    -0.766000000     2.844000000
H     3.482000000     0.251000000     3.174000000
C     2.316000000    -1.373000000     3.605000000
O     1.651000000    -0.641000000     4.534000000
C     2.035000000    -2.701000000     3.447000000
C     1.025000000    -3.611000000     4.247000000
H     1.290000000    -4.667000000     4.172000000
C    -0.377000000    -3.340000000     3.787000000
C    -0.792000000    -4.135000000     2.709000000
H    -0.174000000    -4.997000000     2.472000000
H     1.121000000    -3.398000000     5.314000000
C     2.776000000    -3.368000000     2.463000000
H     2.441000000    -4.354000000     2.151000000
C     3.741000000    -2.763000000     1.573000000
C     4.449000000    -3.544000000     0.471000000
H     4.314000000    -4.613000000     0.647000000
H     5.521000000    -3.348000000     0.536000000
C     3.856000000    -3.222000000    -0.897000000
C     2.801000000    -4.019000000    -1.346000000
H     2.553000000    -4.905000000    -0.768000000
C     4.125000000    -2.103000000    -1.662000000
C     3.401000000    -1.766000000    -2.818000000
H     3.608000000    -0.835000000    -3.339000000
C     2.284000000    -2.515000000    -3.149000000
O     1.530000000    -2.108000000    -4.215000000
C     0.242000000    -1.522000000    -3.828000000
C    -0.084000000    -0.219000000    -4.517000000
C    -1.400000000     0.239000000    -4.727000000
H    -2.187000000    -0.389000000    -4.317000000
C     0.967000000     0.589000000    -5.059000000
H     1.969000000     0.177000000    -4.964000000
O    -0.726000000    -2.584000000    -4.092000000
H     0.246000000    -1.394000000    -2.735000000
C     2.067000000    -3.757000000    -2.495000000
C     0.861000000    -4.625000000    -2.906000000
H     1.020000000    -5.676000000    -2.656000000
H     0.784000000    -4.668000000    -3.994000000
C    -0.448000000    -4.156000000    -2.287000000
C    -0.823000000    -4.657000000    -1.083000000
H    -0.224000000    -5.366000000    -0.518000000
C    -1.240000000    -3.304000000    -3.030000000
C    -2.434000000    -2.838000000    -2.450000000
H    -3.059000000    -2.131000000    -2.990000000
C    -2.859000000    -3.356000000    -1.180000000
O    -3.973000000    -2.787000000    -0.579000000
C    -3.814000000    -1.754000000     0.471000000
C    -4.811000000    -0.672000000     0.357000000
C    -5.096000000    -0.154000000    -0.921000000
H    -4.618000000    -0.557000000    -1.810000000
C    -5.339000000    -0.065000000     1.482000000
H    -5.231000000    -0.397000000     2.512000000
O    -3.878000000    -2.359000000     1.790000000
H    -2.814000000    -1.328000000     0.305000000
C    -2.010000000    -4.298000000    -0.516000000
C    -2.417000000    -4.767000000     0.930000000
H    -2.068000000    -5.778000000     1.148000000
H    -3.505000000    -4.753000000     1.024000000
C    -1.920000000    -3.832000000     1.986000000
C    -2.723000000    -2.731000000     2.364000000
C    -2.329000000    -2.025000000     3.540000000
H    -2.954000000    -1.207000000     3.890000000
C    -1.118000000    -2.263000000     4.251000000
O    -0.588000000    -1.228000000     4.958000000
C     0.265000000    -0.356000000     4.315000000
H     0.105000000    -0.493000000     3.235000000
C    -0.104000000     1.114000000     4.697000000
C     0.925000000     2.031000000     5.070000000
H     1.981000000     1.798000000     5.180000000
C    -1.399000000     1.581000000     4.513000000
H    -2.185000000     0.868000000     4.277000000
C    -1.662000000     2.979000000     4.708000000
O    -2.835000000     3.502000000     4.421000000
C    -0.677000000     3.880000000     5.060000000
H    -0.865000000     4.951000000     5.073000000
C     0.640000000     3.411000000     5.264000000
O     1.695000000     4.336000000     5.376000000
C     2.895000000     4.099000000     4.709000000
C     3.026000000     4.315000000     3.311000000
H     2.134000000     4.549000000     2.734000000
C     3.985000000     3.608000000     5.399000000
H     3.988000000     3.354000000     6.456000000
C     5.189000000     3.352000000     4.706000000
H     6.083000000     3.046000000     5.244000000
C     5.278000000     3.674000000     3.315000000
H     6.187000000     3.481000000     2.752000000
C     4.149000000     4.167000000     2.634000000
O     4.198000000     4.458000000     1.268000000
C     4.334000000     3.472000000     0.266000000
C     4.518000000     3.922000000    -1.030000000
H     4.522000000     4.982000000    -1.269000000
C     4.642000000     2.969000000    -2.057000000
O     5.046000000     3.384000000    -3.332000000
C     4.623000000     2.916000000    -4.591000000
C     3.312000000     2.846000000    -4.811000000
H     2.551000000     3.146000000    -4.095000000
C     5.631000000     2.580000000    -5.531000000
H     6.695000000     2.626000000    -5.313000000
C     5.205000000     2.028000000    -6.770000000
H     5.961000000     1.820000000    -7.522000000
C     3.867000000     1.990000000    -7.088000000
H     3.492000000     1.720000000    -8.071000000
C     2.892000000     2.317000000    -6.089000000
O     1.589000000     2.425000000    -6.456000000
C     0.625000000     1.735000000    -5.753000000
C    -0.653000000     2.127000000    -5.863000000
H    -0.797000000     3.046000000    -6.425000000
C    -1.705000000     1.434000000    -5.352000000
O    -2.994000000     1.894000000    -5.489000000
C    -4.110000000     1.274000000    -5.016000000
C    -4.701000000     1.689000000    -3.843000000
H    -4.339000000     2.567000000    -3.315000000
C    -4.572000000     0.231000000    -5.728000000
H    -4.097000000    -0.033000000    -6.669000000
C    -5.658000000    -0.455000000    -5.328000000
H    -6.116000000    -1.256000000    -5.903000000
C    -6.260000000    -0.041000000    -4.116000000
H    -7.240000000    -0.470000000    -3.926000000
C    -5.876000000     1.040000000    -3.433000000
O    -6.440000000     1.466000000    -2.309000000
C    -6.045000000     0.925000000    -1.032000000
C    -6.517000000     1.525000000     0.119000000
H    -7.145000000     2.412000000     0.084000000
C    -6.196000000     1.025000000     1.366000000
O    -6.661000000     1.554000000     2.521000000
C    -5.917000000     1.860000000     3.630000000
C    -6.327000000     1.580000000     4.946000000
H    -7.274000000     1.047000000     4.980000000
C    -5.575000000     1.853000000     6.068000000
H    -5.915000000     1.563000000     7.059000000
C    -4.380000000     2.482000000     5.832000000
H    -3.751000000     2.727000000     6.684000000
C    -3.944000000     2.781000000     4.559000000
C    -4.708000000     2.515000000     3.448000000
H    -4.413000000     2.800000000     2.441000000
C    -1.828000000     1.276000000    -0.426000000
H    -2.640000000     1.196000000    -1.145000000
C    -0.856000000     0.273000000    -0.419000000
H    -0.970000000    -0.633000000    -1.009000000
C     0.185000000     0.341000000     0.536000000
H     0.807000000    -0.557000000     0.711000000
C     0.444000000     1.480000000     1.277000000
H     1.409000000     1.554000000     1.771000000
C    -0.573000000     2.505000000     1.229000000
H    -0.503000000     3.422000000     1.808000000
C    -1.710000000     2.359000000     0.399000000
C    -2.707000000     3.432000000     0.310000000
O    -2.729000000     4.353000000     1.140000000
O    -3.358000000     3.533000000    -0.689000000
O    -1.952000000     9.242000000    -0.214000000
H    -1.006000000     9.333000000    -0.101000000
H    -2.325000000     9.942000000     0.322000000
O    -3.535000000     7.482000000    -1.664000000
H    -4.452000000     7.396000000    -1.405000000
H    -3.202000000     8.206000000    -1.134000000
O    -4.742000000     5.793000000     1.791000000
H    -4.114000000     5.204000000     1.372000000
H    -4.403000000     5.913000000     2.678000000
O    -2.023000000     6.328000000    -5.828000000
H    -1.460000000     5.845000000    -5.222000000
H    -2.467000000     6.974000000    -5.279000000
O    -5.825000000     8.141000000     3.239000000
H    -6.624000000     7.625000000     3.136000000
H    -6.133000000     9.038000000     3.365000000
O    -5.026000000     5.270000000    -4.316000000
H    -5.596000000     5.216000000    -3.548000000
H    -4.139000000     5.214000000    -3.960000000
O    -2.897000000     5.117000000    -2.757000000
H    -3.072000000     5.966000000    -2.353000000
H    -3.023000000     4.484000000    -2.050000000
O    -0.508000000     5.386000000    -3.823000000
H    -1.337000000     5.196000000    -3.383000000
H     0.119000000     5.506000000    -3.110000000
O    -2.965000000     8.477000000    -4.171000000
H    -3.000000000     8.045000000    -3.317000000
H    -3.382000000     9.326000000    -4.028000000
O     0.780000000     8.741000000    -0.918000000
H     1.022000000     7.918000000    -0.494000000
H     1.272000000     8.741000000    -1.740000000
O     0.170000000     7.500000000     3.423000000
H     0.963000000     7.575000000     2.893000000
H    -0.468000000     7.083000000     2.843000000
O     2.309000000     7.359000000     1.914000000
H     3.249000000     7.432000000     2.080000000
H     2.235000000     6.664000000     1.261000000
O    -7.096000000     5.164000000     3.639000000
H    -6.307000000     4.871000000     3.183000000
H    -7.742000000     5.291000000     2.945000000
O    -5.649000000     4.830000000    -1.586000000
H    -4.995000000     4.364000000    -1.065000000
H    -5.769000000     5.663000000    -1.130000000
O     1.231000000     5.788000000    -0.018000000
H     0.433000000     6.115000000     0.397000000
H     0.928000000     5.097000000    -0.607000000
O    -1.386000000     6.780000000     1.131000000
H    -1.709000000     7.524000000     0.622000000
H    -2.056000000     6.106000000     1.021000000
O    -7.752000000     4.076000000    -3.014000000
H    -7.908000000     3.155000000    -2.804000000
H    -7.057000000     4.344000000    -2.412000000
O    -5.858000000     7.381000000    -0.198000000
H    -5.500000000     8.193000000     0.162000000
H    -5.547000000     6.698000000     0.396000000
O     0.405000000     3.629000000    -1.627000000
H     0.584000000     2.912000000    -1.017000000
H     0.026000000     3.201000000    -2.394000000
