215
-1459.27723
C    -0.761000000     1.648000000     4.860000000
H    -1.118000000     2.421000000     4.185000000
C     0.600000000     1.339000000     4.755000000
C     1.140000000     0.274000000     5.485000000
H     2.148000000    -0.102000000     5.336000000
C     1.374000000     2.002000000     3.613000000
O     1.238000000     3.409000000     3.554000000
H     0.999000000     1.613000000     2.655000000
O     2.818000000     1.684000000     3.724000000
C     3.448000000     1.355000000     2.590000000
C     3.742000000     0.019000000     2.414000000
H     3.445000000    -0.675000000     3.196000000
C     4.367000000    -0.386000000     1.272000000
O     4.446000000    -1.740000000     1.074000000
C     4.855000000     0.502000000     0.266000000
C     5.589000000     0.015000000    -0.923000000
H     6.294000000     0.798000000    -1.209000000
C     4.571000000    -0.318000000    -1.940000000
C     4.149000000     0.626000000    -2.863000000
H     4.576000000     1.626000000    -2.854000000
H     6.104000000    -0.921000000    -0.696000000
C     4.457000000     1.899000000     0.432000000
H     4.684000000     2.663000000    -0.307000000
C     3.825000000     2.257000000     1.582000000
C     3.554000000     3.717000000     1.823000000
H     4.199000000     4.363000000     1.224000000
H     3.840000000     3.975000000     2.845000000
C     2.105000000     4.133000000     1.463000000
C     1.862000000     4.481000000     0.130000000
H     2.706000000     4.339000000    -0.540000000
C     1.030000000     3.987000000     2.342000000
C    -0.254000000     4.400000000     1.948000000
H    -1.052000000     4.333000000     2.684000000
C    -0.456000000     4.759000000     0.582000000
O    -1.751000000     4.692000000     0.087000000
C    -2.092000000     3.604000000    -0.868000000
C    -3.415000000     3.035000000    -0.415000000
C    -4.024000000     2.077000000    -1.249000000
H    -3.653000000     1.934000000    -2.261000000
C    -3.995000000     3.299000000     0.876000000
H    -3.664000000     4.053000000     1.586000000
O    -2.105000000     3.979000000    -2.258000000
H    -1.435000000     2.764000000    -0.601000000
C     0.610000000     4.857000000    -0.278000000
C     0.435000000     5.241000000    -1.744000000
H     1.270000000     5.863000000    -2.072000000
H    -0.436000000     5.900000000    -1.751000000
C     0.324000000     4.089000000    -2.665000000
C     1.466000000     3.410000000    -3.247000000
H     2.497000000     3.706000000    -3.069000000
C    -0.969000000     3.555000000    -2.949000000
C    -1.107000000     2.410000000    -3.676000000
H    -2.088000000     1.960000000    -3.800000000
C    -0.029000000     1.798000000    -4.331000000
O    -0.233000000     0.582000000    -4.914000000
C     0.086000000    -0.585000000    -4.212000000
C    -0.966000000    -1.598000000    -4.478000000
C    -2.245000000    -1.335000000    -4.971000000
H    -2.515000000    -0.292000000    -5.115000000
C    -0.714000000    -2.971000000    -4.219000000
H     0.267000000    -3.308000000    -3.894000000
O     1.426000000    -1.052000000    -4.559000000
H    -0.007000000    -0.380000000    -3.135000000
C     1.302000000     2.256000000    -4.049000000
C     2.525000000     1.609000000    -4.622000000
H     3.297000000     2.328000000    -4.904000000
H     2.242000000     1.165000000    -5.579000000
C     3.122000000     0.428000000    -3.779000000
C     2.519000000    -0.834000000    -3.780000000
C     2.974000000    -1.826000000    -2.950000000
H     2.579000000    -2.836000000    -3.030000000
C     3.994000000    -1.557000000    -2.010000000
O     4.175000000    -2.535000000    -1.023000000
C     3.492000000    -2.330000000     0.197000000
H     2.738000000    -1.542000000     0.052000000
C     2.824000000    -3.597000000     0.730000000
C     2.553000000    -3.723000000     2.080000000
H     2.772000000    -2.842000000     2.678000000
C     2.380000000    -4.535000000    -0.162000000
H     2.614000000    -4.437000000    -1.219000000
C     1.735000000    -5.623000000     0.362000000
O     1.356000000    -6.685000000    -0.458000000
C     1.482000000    -5.793000000     1.683000000
H     0.920000000    -6.655000000     2.034000000
C     1.828000000    -4.784000000     2.585000000
O     1.515000000    -4.931000000     3.941000000
C     1.963000000    -4.055000000     4.878000000
C     1.107000000    -3.073000000     5.441000000
H     0.052000000    -3.101000000     5.182000000
C     3.269000000    -4.138000000     5.300000000
H     3.917000000    -4.853000000     4.799000000
C     3.739000000    -3.322000000     6.355000000
H     4.807000000    -3.303000000     6.557000000
C     2.858000000    -2.477000000     6.987000000
H     3.228000000    -1.942000000     7.858000000
C     1.585000000    -2.321000000     6.528000000
O     0.640000000    -1.476000000     7.132000000
C     0.246000000    -0.368000000     6.405000000
C    -1.118000000     0.035000000     6.516000000
H    -1.854000000    -0.399000000     7.189000000
C    -1.645000000     1.026000000     5.684000000
O    -2.943000000     1.422000000     5.825000000
C    -3.511000000     2.540000000     5.197000000
C    -4.409000000     2.284000000     4.169000000
H    -4.633000000     1.255000000     3.901000000
C    -3.336000000     3.829000000     5.623000000
H    -2.687000000     3.970000000     6.483000000
C    -4.006000000     4.869000000     4.915000000
H    -3.790000000     5.921000000     5.085000000
C    -4.908000000     4.593000000     3.899000000
H    -5.376000000     5.428000000     3.385000000
C    -5.137000000     3.266000000     3.520000000
O    -5.871000000     3.010000000     2.381000000
C    -5.214000000     2.694000000     1.247000000
C    -5.756000000     1.751000000     0.405000000
H    -6.586000000     1.122000000     0.717000000
C    -5.174000000     1.410000000    -0.818000000
O    -5.708000000     0.438000000    -1.578000000
C    -5.824000000     0.288000000    -2.941000000
C    -5.270000000    -0.816000000    -3.504000000
H    -4.790000000    -1.586000000    -2.905000000
C    -6.381000000     1.303000000    -3.690000000
H    -6.776000000     2.171000000    -3.168000000
C    -6.403000000     1.138000000    -5.097000000
H    -6.764000000     2.007000000    -5.642000000
C    -5.844000000     0.040000000    -5.738000000
H    -5.746000000    -0.049000000    -6.817000000
C    -5.195000000    -0.924000000    -4.913000000
O    -4.442000000    -1.865000000    -5.547000000
C    -3.251000000    -2.281000000    -5.152000000
C    -3.004000000    -3.569000000    -4.805000000
H    -3.765000000    -4.310000000    -5.035000000
C    -1.711000000    -3.970000000    -4.336000000
O    -1.524000000    -5.277000000    -4.042000000
C    -0.334000000    -5.873000000    -3.591000000
C     0.637000000    -6.303000000    -4.513000000
H     0.344000000    -6.188000000    -5.554000000
C     1.886000000    -6.806000000    -4.057000000
H     2.632000000    -7.152000000    -4.768000000
C     2.084000000    -6.974000000    -2.693000000
H     3.025000000    -7.435000000    -2.407000000
C     1.140000000    -6.537000000    -1.787000000
C    -0.072000000    -5.977000000    -2.223000000
H    -0.850000000    -5.644000000    -1.541000000
C    -1.540000000    -1.808000000    -0.347000000
H    -1.536000000    -2.759000000    -0.873000000
C    -0.415000000    -1.067000000    -0.173000000
H     0.496000000    -1.344000000    -0.697000000
C    -0.501000000     0.106000000     0.580000000
H     0.354000000     0.724000000     0.658000000
C    -1.601000000     0.520000000     1.197000000
H    -1.593000000     1.413000000     1.816000000
C    -2.744000000    -0.243000000     1.025000000
H    -3.669000000     0.117000000     1.468000000
C    -2.727000000    -1.397000000     0.295000000
C    -3.952000000    -2.208000000     0.102000000
O    -4.964000000    -1.943000000     0.686000000
O    -3.946000000    -3.142000000    -0.609000000
O    -7.374000000    -1.659000000     2.142000000
H    -7.525000000    -2.587000000     1.967000000
H    -6.545000000    -1.464000000     1.705000000
O    -5.258000000    -1.864000000     5.809000000
H    -4.374000000    -1.870000000     5.441000000
H    -5.125000000    -1.754000000     6.751000000
O    -1.227000000    -5.942000000     5.010000000
H    -0.510000000    -6.567000000     4.895000000
H    -1.309000000    -5.512000000     4.159000000
O    -4.083000000    -7.573000000     2.410000000
H    -3.457000000    -7.528000000     3.133000000
H    -4.104000000    -6.684000000     2.056000000
O    -1.141000000    -4.738000000     2.219000000
H    -1.747000000    -5.091000000     1.568000000
H    -0.275000000    -4.857000000     1.830000000
O    -5.336000000    -4.432000000    -2.340000000
H    -4.747000000    -3.935000000    -1.771000000
H    -6.042000000    -3.820000000    -2.547000000
O    -5.608000000    -5.090000000     1.852000000
H    -5.732000000    -5.739000000     1.160000000
H    -5.393000000    -4.281000000     1.386000000
O    -7.327000000    -2.280000000    -0.683000000
H    -6.448000000    -2.085000000    -0.358000000
H    -7.713000000    -1.422000000    -0.859000000
O    -8.107000000    -4.583000000     0.428000000
H    -7.932000000    -3.729000000     0.034000000
H    -7.492000000    -5.176000000    -0.003000000
O   -10.624000000    -1.773000000     0.255000000
H    -9.693000000    -1.975000000     0.156000000
H   -10.787000000    -1.848000000     1.195000000
O    -6.275000000    -6.895000000    -0.599000000
H    -6.050000000    -6.666000000    -1.500000000
H    -7.074000000    -7.417000000    -0.677000000
O    -6.460000000    -5.953000000    -4.881000000
H    -6.088000000    -5.369000000    -4.220000000
H    -5.742000000    -6.109000000    -5.494000000
O    -2.537000000    -2.077000000     4.768000000
H    -2.697000000    -2.972000000     4.470000000
H    -1.961000000    -1.703000000     4.101000000
O    -7.379000000    -0.070000000     4.476000000
H    -7.659000000    -0.500000000     3.668000000
H    -6.748000000    -0.676000000     4.863000000
O    -0.701000000    -1.781000000     2.910000000
H    -0.853000000    -1.169000000     2.190000000
H    -0.869000000    -2.644000000     2.531000000
O    -8.786000000    -0.172000000    -1.374000000
H    -9.636000000    -0.211000000    -0.934000000
H    -8.739000000     0.718000000    -1.724000000
O    -3.148000000    -5.475000000     0.393000000
H    -3.367000000    -6.199000000    -0.193000000
H    -3.541000000    -4.706000000    -0.020000000
O    -8.978000000    -2.187000000    -3.555000000
H    -9.526000000    -2.842000000    -3.122000000
H    -8.714000000    -1.593000000    -2.852000000
O    -4.913000000    -4.252000000     4.391000000
H    -5.347000000    -4.427000000     3.556000000
H    -5.172000000    -3.358000000     4.613000000
