215
-1443.23757
C    -2.086000000     1.890000000     4.116000000
H    -2.217000000     2.538000000     3.253000000
C    -0.790000000     1.472000000     4.388000000
C    -0.617000000     0.416000000     5.304000000
H     0.397000000     0.047000000     5.438000000
C     0.267000000     2.093000000     3.562000000
O     0.090000000     3.528000000     3.350000000
H     0.346000000     1.561000000     2.602000000
O     1.548000000     1.990000000     4.158000000
C     2.590000000     1.578000000     3.441000000
C     2.871000000     0.247000000     3.455000000
H     2.339000000    -0.348000000     4.193000000
C     3.781000000    -0.285000000     2.542000000
O     3.884000000    -1.663000000     2.496000000
C     4.460000000     0.515000000     1.645000000
C     5.470000000    -0.059000000     0.644000000
H     6.126000000     0.781000000     0.406000000
C     4.783000000    -0.565000000    -0.573000000
C     4.724000000     0.265000000    -1.699000000
H     5.167000000     1.257000000    -1.691000000
H     6.143000000    -0.757000000     1.146000000
C     4.183000000     1.889000000     1.636000000
H     4.662000000     2.558000000     0.926000000
C     3.219000000     2.437000000     2.507000000
C     2.981000000     3.902000000     2.681000000
H     3.824000000     4.555000000     2.444000000
H     2.891000000     4.069000000     3.757000000
C     1.817000000     4.289000000     1.798000000
C     2.109000000     4.685000000     0.482000000
H     3.148000000     4.919000000     0.263000000
C     0.464000000     4.083000000     2.113000000
C    -0.543000000     4.321000000     1.176000000
H    -1.573000000     4.185000000     1.497000000
C    -0.214000000     4.706000000    -0.168000000
O    -1.174000000     4.834000000    -1.045000000
C    -1.519000000     3.689000000    -1.896000000
C    -2.994000000     3.435000000    -1.949000000
C    -3.558000000     2.870000000    -3.091000000
H    -3.000000000     2.815000000    -4.022000000
C    -3.825000000     3.615000000    -0.792000000
H    -3.376000000     3.985000000     0.126000000
O    -0.916000000     3.976000000    -3.234000000
H    -1.071000000     2.808000000    -1.413000000
C     1.127000000     4.749000000    -0.539000000
C     1.569000000     5.011000000    -2.036000000
H     2.527000000     5.512000000    -2.194000000
H     0.830000000     5.711000000    -2.431000000
C     1.539000000     3.751000000    -2.980000000
C     2.651000000     2.956000000    -3.139000000
H     3.595000000     3.318000000    -2.739000000
C     0.269000000     3.356000000    -3.498000000
C     0.190000000     2.092000000    -4.130000000
H    -0.774000000     1.829000000    -4.557000000
C     1.337000000     1.266000000    -4.285000000
O     1.161000000    -0.008000000    -4.830000000
C     1.258000000    -1.182000000    -3.977000000
C     0.147000000    -2.256000000    -4.212000000
C    -1.128000000    -1.696000000    -4.514000000
H    -1.246000000    -0.632000000    -4.324000000
C     0.394000000    -3.576000000    -4.142000000
H     1.391000000    -3.989000000    -4.009000000
O     2.643000000    -1.710000000    -3.905000000
H     1.046000000    -0.836000000    -2.954000000
C     2.572000000     1.693000000    -3.798000000
C     3.850000000     0.938000000    -3.936000000
H     4.755000000     1.541000000    -4.028000000
H     3.843000000     0.368000000    -4.867000000
C     4.048000000    -0.089000000    -2.805000000
C     3.446000000    -1.377000000    -2.856000000
C     3.630000000    -2.251000000    -1.848000000
H     3.148000000    -3.223000000    -1.907000000
C     4.311000000    -1.882000000    -0.666000000
O     4.227000000    -2.716000000     0.410000000
C     3.160000000    -2.324000000     1.419000000
H     2.418000000    -1.683000000     0.921000000
C     2.337000000    -3.523000000     1.944000000
C     2.007000000    -3.756000000     3.307000000
H     2.343000000    -3.042000000     4.055000000
C     1.815000000    -4.376000000     0.962000000
H     2.022000000    -4.326000000    -0.104000000
C     0.962000000    -5.420000000     1.331000000
O     0.575000000    -6.470000000     0.432000000
C     0.569000000    -5.589000000     2.672000000
H    -0.032000000    -6.458000000     2.929000000
C     1.022000000    -4.704000000     3.648000000
O     0.675000000    -4.952000000     4.978000000
C     0.635000000    -3.986000000     5.945000000
C    -0.285000000    -2.920000000     5.866000000
H    -1.037000000    -3.006000000     5.086000000
C     1.560000000    -4.048000000     6.992000000
H     2.397000000    -4.742000000     6.987000000
C     1.401000000    -3.046000000     7.978000000
H     2.200000000    -3.008000000     8.714000000
C     0.280000000    -2.213000000     8.081000000
H     0.192000000    -1.549000000     8.937000000
C    -0.522000000    -2.028000000     6.920000000
O    -1.562000000    -1.206000000     6.885000000
C    -1.690000000    -0.181000000     5.933000000
C    -2.970000000     0.237000000     5.641000000
H    -3.843000000    -0.256000000     6.060000000
C    -3.149000000     1.272000000     4.725000000
O    -4.480000000     1.603000000     4.369000000
C    -4.859000000     2.665000000     3.608000000
C    -5.388000000     2.542000000     2.353000000
H    -5.583000000     1.527000000     2.016000000
C    -4.600000000     3.974000000     4.144000000
H    -4.282000000     4.068000000     5.180000000
C    -5.035000000     5.042000000     3.366000000
H    -4.820000000     6.035000000     3.752000000
C    -5.501000000     4.910000000     2.053000000
H    -5.773000000     5.774000000     1.452000000
C    -5.634000000     3.595000000     1.521000000
O    -6.036000000     3.326000000     0.270000000
C    -5.166000000     3.189000000    -0.820000000
C    -5.715000000     2.897000000    -2.030000000
H    -6.765000000     2.639000000    -2.144000000
C    -4.937000000     2.613000000    -3.132000000
O    -5.529000000     2.136000000    -4.245000000
C    -4.890000000     1.199000000    -5.037000000
C    -4.549000000    -0.121000000    -4.668000000
H    -4.852000000    -0.404000000    -3.663000000
C    -4.406000000     1.638000000    -6.257000000
H    -4.719000000     2.629000000    -6.576000000
C    -3.631000000     0.812000000    -7.096000000
H    -3.281000000     1.177000000    -8.059000000
C    -3.293000000    -0.514000000    -6.637000000
H    -2.575000000    -1.179000000    -7.111000000
C    -3.833000000    -0.995000000    -5.435000000
O    -3.528000000    -2.268000000    -4.967000000
C    -2.180000000    -2.632000000    -4.821000000
C    -1.912000000    -4.011000000    -4.753000000
H    -2.753000000    -4.690000000    -4.867000000
C    -0.642000000    -4.451000000    -4.380000000
O    -0.531000000    -5.800000000    -4.160000000
C     0.401000000    -6.217000000    -3.163000000
C     1.703000000    -6.518000000    -3.538000000
H     1.862000000    -6.634000000    -4.607000000
C     2.556000000    -7.060000000    -2.593000000
H     3.357000000    -7.706000000    -2.943000000
C     2.228000000    -7.106000000    -1.216000000
H     2.874000000    -7.601000000    -0.495000000
C     1.008000000    -6.606000000    -0.836000000
C     0.054000000    -6.157000000    -1.799000000
H    -0.943000000    -5.831000000    -1.512000000
C    -1.910000000    -1.500000000    -0.848000000
H    -2.263000000    -2.391000000    -1.360000000
C    -0.551000000    -1.318000000    -0.751000000
H     0.188000000    -1.983000000    -1.192000000
C    -0.162000000    -0.073000000    -0.228000000
H     0.947000000     0.109000000    -0.075000000
C    -1.124000000     0.809000000     0.220000000
H    -0.775000000     1.801000000     0.495000000
C    -2.482000000     0.553000000     0.324000000
H    -3.235000000     1.199000000     0.767000000
C    -2.858000000    -0.622000000    -0.306000000
C    -4.360000000    -0.927000000    -0.455000000
O    -5.292000000    -0.208000000    -0.020000000
O    -4.731000000    -1.883000000    -1.113000000
O    -7.760000000     0.454000000    -0.140000000
H    -7.651000000     1.361000000     0.146000000
H    -6.876000000     0.089000000    -0.123000000
O    -6.292000000    -1.140000000     2.065000000
H    -5.813000000    -0.645000000     1.400000000
H    -7.214000000    -0.958000000     1.882000000
O    -2.826000000    -4.985000000     3.564000000
H    -3.514000000    -5.289000000     4.156000000
H    -3.139000000    -4.136000000     3.249000000
O   -10.977000000    -0.678000000     0.031000000
H   -10.117000000    -0.955000000     0.347000000
H   -11.421000000    -1.493000000    -0.203000000
O    -5.881000000    -6.437000000    -2.404000000
H    -6.200000000    -6.681000000    -3.273000000
H    -5.315000000    -5.681000000    -2.560000000
O    -7.341000000    -1.861000000    -2.349000000
H    -6.487000000    -1.893000000    -1.919000000
H    -7.902000000    -1.388000000    -1.734000000
O    -7.039000000    -3.138000000     0.397000000
H    -6.356000000    -2.893000000    -0.228000000
H    -7.066000000    -2.411000000     1.019000000
O    -6.310000000    -4.012000000     4.783000000
H    -5.751000000    -3.359000000     4.361000000
H    -5.771000000    -4.802000000     4.817000000
O    -6.443000000    -5.943000000     0.241000000
H    -6.506000000    -5.020000000     0.488000000
H    -5.951000000    -5.938000000    -0.580000000
O    -7.225000000    -3.206000000    -5.260000000
H    -7.619000000    -2.351000000    -5.435000000
H    -6.629000000    -3.050000000    -4.527000000
O    -4.076000000    -2.361000000     3.294000000
H    -4.590000000    -1.791000000     2.722000000
H    -3.209000000    -1.957000000     3.318000000
O    -6.662000000    -0.236000000     5.557000000
H    -6.036000000    -0.030000000     4.862000000
H    -7.201000000     0.552000000     5.635000000
O    -1.699000000    -1.389000000     2.749000000
H    -1.274000000    -2.156000000     2.364000000
H    -1.367000000    -0.651000000     2.239000000
O    -9.579000000    -3.689000000     0.703000000
H    -9.930000000    -2.961000000     1.216000000
H    -8.660000000    -3.459000000     0.559000000
O    -3.946000000    -4.301000000    -2.263000000
H    -3.695000000    -3.828000000    -3.056000000
H    -4.132000000    -3.615000000    -1.623000000
O    -9.212000000    -5.483000000    -1.456000000
H    -8.933000000    -5.247000000    -2.340000000
H    -8.628000000    -4.989000000    -0.880000000
O    -9.334000000    -1.179000000     2.329000000
H    -9.766000000    -0.328000000     2.258000000
H    -9.153000000    -1.279000000     3.263000000
O    -9.901000000     1.027000000    -1.867000000
H    -9.295000000     0.590000000    -1.269000000
H   -10.730000000     0.563000000    -1.750000000
O    -2.366000000    -5.153000000     0.727000000
H    -2.233000000    -4.808000000     1.610000000
H    -1.523000000    -5.541000000     0.493000000
