215
-1472.26824
C    -0.096000000     2.361000000     4.979000000
H    -0.145000000     3.412000000     4.706000000
C     0.912000000     1.590000000     4.352000000
C     1.018000000     0.219000000     4.659000000
H     1.703000000    -0.373000000     4.058000000
C     1.763000000     2.158000000     3.224000000
O     1.610000000     3.577000000     3.016000000
H     1.526000000     1.590000000     2.312000000
O     3.185000000     1.836000000     3.465000000
C     3.906000000     1.393000000     2.340000000
C     3.997000000     0.015000000     2.191000000
H     3.647000000    -0.635000000     2.989000000
C     4.506000000    -0.528000000     1.035000000
O     4.477000000    -1.915000000     0.879000000
C     4.908000000     0.210000000    -0.048000000
C     5.416000000    -0.349000000    -1.350000000
H     6.083000000     0.386000000    -1.804000000
C     4.211000000    -0.691000000    -2.298000000
C     3.793000000     0.270000000    -3.223000000
H     4.282000000     1.231000000    -3.357000000
H     6.058000000    -1.172000000    -1.028000000
C     4.857000000     1.599000000     0.132000000
H     5.055000000     2.211000000    -0.744000000
C     4.300000000     2.220000000     1.289000000
C     4.083000000     3.670000000     1.348000000
H     4.751000000     4.124000000     0.613000000
H     4.333000000     3.942000000     2.375000000
C     2.689000000     4.038000000     0.883000000
C     2.379000000     4.594000000    -0.413000000
H     3.216000000     4.897000000    -1.037000000
C     1.520000000     3.913000000     1.732000000
C     0.199000000     4.064000000     1.331000000
H    -0.602000000     3.957000000     2.059000000
C    -0.042000000     4.545000000     0.037000000
O    -1.302000000     4.719000000    -0.364000000
C    -1.901000000     3.597000000    -1.023000000
C    -3.311000000     3.291000000    -0.463000000
C    -4.201000000     2.579000000    -1.237000000
H    -3.945000000     2.270000000    -2.248000000
C    -3.552000000     3.639000000     0.885000000
H    -2.821000000     4.145000000     1.511000000
O    -1.991000000     3.842000000    -2.453000000
H    -1.234000000     2.736000000    -0.868000000
C     1.043000000     4.768000000    -0.789000000
C     0.792000000     5.060000000    -2.258000000
H     1.757000000     5.452000000    -2.588000000
H     0.004000000     5.802000000    -2.401000000
C     0.387000000     3.772000000    -3.128000000
C     1.426000000     3.083000000    -3.778000000
H     2.400000000     3.563000000    -3.722000000
C    -0.913000000     3.314000000    -3.217000000
C    -1.175000000     2.207000000    -4.020000000
H    -2.191000000     1.822000000    -4.047000000
C    -0.177000000     1.437000000    -4.589000000
O    -0.553000000     0.149000000    -5.079000000
C    -0.261000000    -1.024000000    -4.242000000
C    -1.443000000    -1.936000000    -4.188000000
C    -2.736000000    -1.473000000    -4.194000000
H    -2.999000000    -0.430000000    -4.354000000
C    -1.204000000    -3.351000000    -4.090000000
H    -0.165000000    -3.670000000    -4.062000000
O     0.959000000    -1.548000000    -4.790000000
H    -0.080000000    -0.754000000    -3.191000000
C     1.127000000     1.886000000    -4.480000000
C     2.276000000     1.111000000    -5.023000000
H     3.094000000     1.835000000    -5.032000000
H     1.962000000     0.664000000    -5.969000000
C     2.665000000     0.007000000    -4.021000000
C     2.111000000    -1.252000000    -4.067000000
C     2.545000000    -2.165000000    -3.136000000
H     1.972000000    -3.087000000    -3.081000000
C     3.574000000    -1.943000000    -2.264000000
O     3.898000000    -2.911000000    -1.306000000
C     3.462000000    -2.584000000     0.076000000
H     2.571000000    -1.940000000     0.081000000
C     2.897000000    -3.821000000     0.802000000
C     3.141000000    -4.061000000     2.133000000
H     3.810000000    -3.491000000     2.773000000
C     1.965000000    -4.580000000     0.150000000
H     1.910000000    -4.521000000    -0.934000000
C     1.353000000    -5.648000000     0.773000000
O     0.600000000    -6.538000000     0.094000000
C     1.595000000    -5.962000000     2.080000000
H     1.162000000    -6.869000000     2.493000000
C     2.459000000    -5.124000000     2.777000000
O     2.663000000    -5.265000000     4.145000000
C     2.452000000    -4.238000000     5.074000000
C     1.373000000    -3.392000000     5.051000000
H     0.511000000    -3.572000000     4.415000000
C     3.471000000    -3.940000000     5.967000000
H     4.245000000    -4.698000000     6.050000000
C     3.413000000    -2.901000000     6.900000000
H     4.205000000    -2.743000000     7.629000000
C     2.314000000    -2.039000000     6.896000000
H     2.207000000    -1.202000000     7.581000000
C     1.251000000    -2.381000000     6.001000000
O     0.118000000    -1.653000000     5.839000000
C     0.165000000    -0.309000000     5.618000000
C    -0.811000000     0.512000000     6.260000000
H    -1.584000000     0.116000000     6.915000000
C    -0.957000000     1.789000000     5.891000000
O    -2.016000000     2.493000000     6.425000000
C    -2.665000000     3.310000000     5.580000000
C    -3.436000000     2.819000000     4.527000000
H    -3.435000000     1.746000000     4.354000000
C    -2.644000000     4.637000000     5.830000000
H    -1.998000000     5.044000000     6.604000000
C    -3.400000000     5.494000000     5.050000000
H    -3.509000000     6.551000000     5.279000000
C    -4.213000000     4.997000000     4.106000000
H    -4.878000000     5.692000000     3.599000000
C    -4.151000000     3.663000000     3.723000000
O    -4.992000000     3.195000000     2.786000000
C    -4.751000000     3.174000000     1.419000000
C    -5.753000000     2.584000000     0.621000000
H    -6.762000000     2.398000000     0.981000000
C    -5.496000000     2.270000000    -0.740000000
O    -6.506000000     1.782000000    -1.535000000
C    -6.259000000     1.262000000    -2.782000000
C    -5.645000000     0.036000000    -2.838000000
H    -5.475000000    -0.447000000    -1.879000000
C    -6.839000000     1.750000000    -3.939000000
H    -7.452000000     2.644000000    -3.852000000
C    -6.759000000     1.044000000    -5.107000000
H    -7.164000000     1.444000000    -6.033000000
C    -6.011000000    -0.144000000    -5.183000000
H    -5.857000000    -0.657000000    -6.128000000
C    -5.536000000    -0.640000000    -4.014000000
O    -5.062000000    -1.935000000    -3.949000000
C    -3.797000000    -2.368000000    -3.950000000
C    -3.571000000    -3.740000000    -3.840000000
H    -4.416000000    -4.336000000    -3.503000000
C    -2.271000000    -4.247000000    -3.866000000
O    -2.120000000    -5.623000000    -3.616000000
C    -0.958000000    -6.133000000    -3.073000000
C    -0.095000000    -6.853000000    -3.889000000
H    -0.299000000    -6.897000000    -4.955000000
C     1.050000000    -7.471000000    -3.378000000
H     1.792000000    -7.919000000    -4.035000000
C     1.362000000    -7.264000000    -2.016000000
H     2.347000000    -7.575000000    -1.678000000
C     0.420000000    -6.615000000    -1.216000000
C    -0.707000000    -6.117000000    -1.725000000
H    -1.420000000    -5.582000000    -1.103000000
C    -1.757000000    -2.294000000    -0.669000000
H    -2.020000000    -3.328000000    -0.874000000
C    -0.491000000    -1.743000000    -0.904000000
H     0.314000000    -2.359000000    -1.297000000
C    -0.224000000    -0.436000000    -0.537000000
H     0.729000000    -0.079000000    -0.806000000
C    -1.248000000     0.302000000     0.132000000
H    -1.141000000     1.347000000     0.413000000
C    -2.482000000    -0.318000000     0.364000000
H    -3.232000000     0.241000000     0.918000000
C    -2.789000000    -1.595000000    -0.057000000
C    -4.100000000    -2.300000000     0.379000000
O    -5.053000000    -1.576000000     0.495000000
O    -4.219000000    -3.501000000     0.396000000
O    -4.766000000    -0.134000000     2.907000000
H    -3.955000000    -0.574000000     3.162000000
H    -5.035000000    -0.576000000     2.102000000
O    -5.270000000    -5.340000000     3.400000000
H    -4.440000000    -5.003000000     3.735000000
H    -5.711000000    -4.572000000     3.036000000
O    -0.994000000    -3.877000000     2.137000000
H    -1.726000000    -4.489000000     2.063000000
H    -0.567000000    -3.910000000     1.282000000
O    -6.050000000    -4.573000000    -1.336000000
H    -5.293000000    -4.294000000    -0.821000000
H    -6.658000000    -4.933000000    -0.690000000
O    -7.953000000    -6.627000000     2.241000000
H    -7.251000000    -7.208000000     1.947000000
H    -7.918000000    -5.885000000     1.637000000
O    -6.442000000    -3.115000000     2.358000000
H    -7.203000000    -3.513000000     1.937000000
H    -5.996000000    -2.645000000     1.653000000
O    -7.572000000    -2.233000000    -0.553000000
H    -6.767000000    -1.757000000    -0.351000000
H    -7.287000000    -2.964000000    -1.102000000
O    -8.548000000    -4.649000000     0.596000000
H    -8.510000000    -3.728000000     0.336000000
H    -9.261000000    -5.016000000     0.075000000
O    -5.463000000    -7.843000000     2.400000000
H    -5.449000000    -6.960000000     2.769000000
H    -5.132000000    -7.735000000     1.508000000
O    -5.183000000    -7.062000000    -0.361000000
H    -5.071000000    -6.494000000    -1.123000000
H    -5.742000000    -7.773000000    -0.673000000
O    -6.590000000    -5.812000000    -3.658000000
H    -6.341000000    -5.458000000    -2.804000000
H    -6.468000000    -6.757000000    -3.571000000
O    -1.944000000    -8.402000000     0.696000000
H    -1.722000000    -7.473000000     0.752000000
H    -2.224000000    -8.635000000     1.581000000
O    -3.825000000    -3.165000000     4.470000000
H    -4.609000000    -2.866000000     4.008000000
H    -3.103000000    -2.714000000     4.033000000
O    -7.162000000     0.214000000     3.835000000
H    -6.329000000     0.477000000     3.443000000
H    -6.993000000    -0.657000000     4.195000000
O    -1.934000000    -1.319000000     3.421000000
H    -1.195000000    -0.985000000     3.931000000
H    -1.548000000    -1.585000000     2.587000000
O    -9.670000000    -0.362000000    -1.069000000
H    -9.402000000    -0.152000000    -0.174000000
H    -9.072000000    -1.058000000    -1.341000000
O    -3.099000000    -5.627000000     1.381000000
H    -3.631000000    -6.227000000     0.858000000
H    -3.445000000    -4.759000000     1.177000000
O    -8.928000000     0.453000000     1.667000000
H    -8.194000000     0.505000000     2.278000000
H    -9.450000000    -0.285000000     1.981000000
O    -7.195000000    -2.400000000     4.732000000
H    -7.007000000    -2.677000000     3.835000000
H    -7.877000000    -3.002000000     5.030000000
