215
-1444.98740
C    -0.467000000     2.129000000     5.274000000
H    -0.673000000     3.122000000     4.883000000
C     0.658000000     1.385000000     4.813000000
C     0.881000000     0.049000000     5.231000000
H     1.717000000    -0.527000000     4.844000000
C     1.591000000     1.861000000     3.674000000
O     1.544000000     3.260000000     3.529000000
H     1.251000000     1.392000000     2.739000000
O     2.948000000     1.361000000     3.787000000
C     3.633000000     0.954000000     2.654000000
C     3.803000000    -0.422000000     2.516000000
H     3.414000000    -1.107000000     3.265000000
C     4.425000000    -0.804000000     1.341000000
O     4.439000000    -2.177000000     1.169000000
C     4.867000000     0.038000000     0.342000000
C     5.552000000    -0.415000000    -0.933000000
H     6.230000000     0.347000000    -1.323000000
C     4.562000000    -0.743000000    -2.074000000
C     4.097000000     0.297000000    -2.872000000
H     4.600000000     1.259000000    -2.830000000
H     6.160000000    -1.249000000    -0.577000000
C     4.713000000     1.376000000     0.521000000
H     5.015000000     2.099000000    -0.233000000
C     4.098000000     1.914000000     1.682000000
C     3.897000000     3.407000000     1.876000000
H     4.645000000     3.861000000     1.223000000
H     4.055000000     3.832000000     2.870000000
C     2.565000000     3.891000000     1.400000000
C     2.479000000     4.337000000     0.110000000
H     3.381000000     4.520000000    -0.469000000
C     1.464000000     3.886000000     2.270000000
C     0.215000000     4.310000000     1.778000000
H    -0.665000000     4.319000000     2.416000000
C     0.079000000     4.624000000     0.447000000
O    -1.156000000     4.914000000    -0.023000000
C    -1.836000000     3.900000000    -0.859000000
C    -3.281000000     3.612000000    -0.570000000
C    -4.174000000     3.149000000    -1.526000000
H    -3.856000000     3.207000000    -2.564000000
C    -3.542000000     3.542000000     0.826000000
H    -2.823000000     3.821000000     1.593000000
O    -1.663000000     4.260000000    -2.231000000
H    -1.321000000     2.948000000    -0.658000000
C     1.240000000     4.804000000    -0.377000000
C     1.069000000     5.289000000    -1.826000000
H     2.019000000     5.652000000    -2.223000000
H     0.382000000     6.120000000    -1.997000000
C     0.752000000     4.113000000    -2.795000000
C     1.796000000     3.335000000    -3.358000000
H     2.843000000     3.601000000    -3.233000000
C    -0.619000000     3.693000000    -2.976000000
C    -0.892000000     2.450000000    -3.530000000
H    -1.916000000     2.101000000    -3.431000000
C     0.076000000     1.712000000    -4.101000000
O    -0.220000000     0.509000000    -4.671000000
C    -0.011000000    -0.783000000    -4.029000000
C    -1.228000000    -1.713000000    -4.279000000
C    -2.571000000    -1.288000000    -4.402000000
H    -2.730000000    -0.215000000    -4.331000000
C    -0.959000000    -3.104000000    -4.448000000
H     0.076000000    -3.409000000    -4.580000000
O     1.293000000    -1.375000000    -4.385000000
H    -0.008000000    -0.608000000    -2.943000000
C     1.437000000     2.123000000    -4.014000000
C     2.562000000     1.279000000    -4.646000000
H     3.461000000     1.888000000    -4.761000000
H     2.341000000     0.945000000    -5.662000000
C     3.066000000     0.078000000    -3.830000000
C     2.407000000    -1.155000000    -3.735000000
C     2.763000000    -2.124000000    -2.821000000
H     2.204000000    -3.051000000    -2.723000000
C     3.823000000    -1.905000000    -1.995000000
O     4.053000000    -2.939000000    -1.053000000
C     3.507000000    -2.743000000     0.235000000
H     2.721000000    -1.976000000     0.164000000
C     2.623000000    -3.926000000     0.713000000
C     2.512000000    -4.199000000     2.066000000
H     3.225000000    -3.694000000     2.713000000
C     1.752000000    -4.647000000    -0.094000000
H     1.515000000    -4.324000000    -1.104000000
C     0.962000000    -5.739000000     0.429000000
O     0.184000000    -6.446000000    -0.487000000
C     1.013000000    -6.027000000     1.745000000
H     0.532000000    -6.933000000     2.106000000
C     1.711000000    -5.188000000     2.609000000
O     1.716000000    -5.456000000     3.999000000
C     1.939000000    -4.426000000     4.925000000
C     0.958000000    -3.534000000     5.297000000
H    -0.074000000    -3.583000000     4.961000000
C     3.180000000    -4.321000000     5.545000000
H     3.945000000    -5.051000000     5.295000000
C     3.465000000    -3.204000000     6.333000000
H     4.389000000    -3.083000000     6.892000000
C     2.486000000    -2.271000000     6.659000000
H     2.688000000    -1.402000000     7.280000000
C     1.212000000    -2.526000000     6.199000000
O     0.168000000    -1.747000000     6.581000000
C    -0.019000000    -0.513000000     6.094000000
C    -1.108000000     0.253000000     6.664000000
H    -1.764000000    -0.198000000     7.403000000
C    -1.348000000     1.548000000     6.189000000
O    -2.546000000     2.163000000     6.541000000
C    -3.285000000     2.957000000     5.646000000
C    -3.935000000     2.431000000     4.514000000
H    -4.044000000     1.356000000     4.394000000
C    -3.368000000     4.382000000     5.864000000
H    -2.846000000     4.855000000     6.691000000
C    -3.985000000     5.185000000     4.937000000
H    -3.956000000     6.250000000     5.153000000
C    -4.479000000     4.704000000     3.747000000
H    -5.066000000     5.281000000     3.037000000
C    -4.470000000     3.300000000     3.571000000
O    -5.075000000     2.683000000     2.494000000
C    -4.746000000     2.943000000     1.219000000
C    -5.618000000     2.425000000     0.269000000
H    -6.590000000     2.118000000     0.647000000
C    -5.335000000     2.458000000    -1.088000000
O    -6.335000000     1.940000000    -1.939000000
C    -5.983000000     1.479000000    -3.222000000
C    -5.574000000     0.139000000    -3.383000000
H    -5.351000000    -0.454000000    -2.499000000
C    -6.209000000     2.235000000    -4.349000000
H    -6.809000000     3.132000000    -4.220000000
C    -5.897000000     1.814000000    -5.650000000
H    -6.167000000     2.461000000    -6.481000000
C    -5.445000000     0.514000000    -5.821000000
H    -5.246000000     0.053000000    -6.786000000
C    -5.286000000    -0.351000000    -4.702000000
O    -4.946000000    -1.689000000    -4.911000000
C    -3.647000000    -2.159000000    -4.653000000
C    -3.343000000    -3.499000000    -4.794000000
H    -4.098000000    -4.270000000    -4.922000000
C    -2.037000000    -3.989000000    -4.634000000
O    -1.747000000    -5.402000000    -4.775000000
C    -0.786000000    -6.070000000    -3.948000000
C     0.144000000    -6.804000000    -4.636000000
H     0.098000000    -6.832000000    -5.721000000
C     1.097000000    -7.432000000    -3.855000000
H     1.727000000    -8.154000000    -4.369000000
C     1.201000000    -7.205000000    -2.490000000
H     1.913000000    -7.725000000    -1.854000000
C     0.262000000    -6.392000000    -1.841000000
C    -0.795000000    -5.897000000    -2.576000000
H    -1.568000000    -5.277000000    -2.129000000
C    -1.586000000    -1.858000000    -0.407000000
H    -1.652000000    -2.798000000    -0.949000000
C    -0.307000000    -1.263000000    -0.268000000
H     0.592000000    -1.831000000    -0.492000000
C    -0.179000000     0.071000000     0.259000000
H     0.793000000     0.410000000     0.354000000
C    -1.331000000     0.718000000     0.673000000
H    -1.265000000     1.745000000     1.024000000
C    -2.571000000     0.022000000     0.638000000
H    -3.400000000     0.612000000     1.021000000
C    -2.724000000    -1.228000000     0.069000000
C    -4.098000000    -1.844000000    -0.152000000
O    -5.170000000    -1.322000000     0.272000000
O    -4.156000000    -3.020000000    -0.475000000
O    -5.960000000     0.201000000     2.328000000
H    -5.592000000     1.078000000     2.216000000
H    -5.602000000    -0.304000000     1.598000000
O    -1.530000000    -4.098000000     1.947000000
H    -2.333000000    -4.549000000     1.689000000
H    -0.941000000    -4.211000000     1.201000000
O    -4.770000000    -1.950000000     6.467000000
H    -4.067000000    -2.241000000     5.886000000
H    -4.773000000    -2.591000000     7.178000000
O    -5.451000000    -4.243000000    -2.453000000
H    -5.049000000    -3.747000000    -1.740000000
H    -4.733000000    -4.757000000    -2.822000000
O    -4.964000000    -3.688000000     2.235000000
H    -4.544000000    -4.450000000     1.836000000
H    -5.050000000    -3.060000000     1.519000000
O    -7.614000000    -1.402000000    -0.838000000
H    -8.191000000    -1.141000000    -0.120000000
H    -6.730000000    -1.289000000    -0.489000000
O    -7.218000000    -5.448000000    -0.094000000
H    -6.884000000    -4.615000000    -0.429000000
H    -6.571000000    -6.095000000    -0.374000000
O    -3.113000000    -7.451000000     3.446000000
H    -3.668000000    -7.235000000     4.195000000
H    -2.997000000    -6.619000000     2.987000000
O    -4.745000000    -7.526000000    -0.733000000
H    -4.042000000    -7.745000000    -1.344000000
H    -4.709000000    -8.215000000    -0.069000000
O    -6.996000000    -5.915000000    -4.722000000
H    -6.991000000    -5.114000000    -4.198000000
H    -6.106000000    -6.257000000    -4.645000000
O    -3.311000000    -3.448000000     4.722000000
H    -4.048000000    -3.488000000     4.112000000
H    -2.636000000    -2.959000000     4.251000000
O    -7.086000000    -0.728000000     5.844000000
H    -6.250000000    -0.943000000     5.430000000
H    -7.702000000    -1.367000000     5.485000000
O    -1.814000000    -1.649000000     3.328000000
H    -1.232000000    -0.992000000     2.946000000
H    -1.737000000    -2.405000000     2.746000000
O    -3.641000000    -5.337000000     0.513000000
H    -4.167000000    -6.029000000     0.112000000
H    -3.858000000    -4.551000000     0.012000000
O    -9.419000000    -5.156000000     1.972000000
H    -9.512000000    -4.779000000     2.847000000
H    -8.723000000    -4.640000000     1.563000000
O    -8.437000000     1.148000000     3.135000000
H    -7.595000000     0.714000000     2.997000000
H    -9.064000000     0.430000000     3.230000000
O    -9.833000000    -1.153000000     2.865000000
H   -10.650000000    -1.650000000     2.894000000
H    -9.153000000    -1.816000000     2.752000000
O    -7.930000000    -3.145000000    -2.997000000
H    -7.113000000    -3.597000000    -2.784000000
H    -8.054000000    -2.524000000    -2.280000000
O    -7.565000000    -3.223000000     2.572000000
H    -6.653000000    -3.379000000     2.326000000
H    -7.544000000    -3.126000000     3.524000000
