215
-1469.93599
C    -1.352000000     1.513000000     4.657000000
H    -1.697000000     2.203000000     3.892000000
C     0.011000000     1.247000000     4.690000000
C     0.511000000     0.186000000     5.434000000
H     1.592000000     0.105000000     5.515000000
C     0.954000000     2.072000000     3.768000000
O     0.551000000     3.449000000     3.649000000
H     0.986000000     1.575000000     2.787000000
O     2.271000000     1.975000000     4.233000000
C     3.173000000     1.619000000     3.268000000
C     3.575000000     0.285000000     3.072000000
H     3.222000000    -0.453000000     3.788000000
C     4.240000000    -0.158000000     1.936000000
O     4.397000000    -1.491000000     1.751000000
C     4.765000000     0.814000000     1.057000000
C     5.552000000     0.398000000    -0.228000000
H     6.243000000     1.217000000    -0.441000000
C     4.598000000     0.020000000    -1.312000000
C     4.325000000     0.995000000    -2.245000000
H     4.721000000     2.004000000    -2.157000000
H     6.178000000    -0.426000000     0.120000000
C     4.463000000     2.169000000     1.332000000
H     4.688000000     2.970000000     0.632000000
C     3.648000000     2.570000000     2.385000000
C     3.082000000     4.038000000     2.487000000
H     3.936000000     4.602000000     2.106000000
H     3.012000000     4.403000000     3.514000000
C     1.760000000     4.221000000     1.672000000
C     1.706000000     4.730000000     0.365000000
H     2.601000000     4.983000000    -0.196000000
C     0.574000000     4.008000000     2.343000000
C    -0.663000000     4.247000000     1.692000000
H    -1.527000000     4.107000000     2.336000000
C    -0.638000000     4.538000000     0.317000000
O    -1.819000000     4.609000000    -0.334000000
C    -2.108000000     3.754000000    -1.467000000
C    -3.560000000     3.328000000    -1.289000000
C    -4.322000000     2.942000000    -2.425000000
H    -3.949000000     3.063000000    -3.439000000
C    -4.117000000     3.002000000    -0.019000000
H    -3.580000000     3.295000000     0.879000000
O    -1.830000000     4.200000000    -2.791000000
H    -1.575000000     2.807000000    -1.297000000
C     0.539000000     4.817000000    -0.346000000
C     0.619000000     5.240000000    -1.827000000
H     1.557000000     5.776000000    -1.982000000
H    -0.131000000     6.026000000    -1.940000000
C     0.530000000     4.149000000    -2.912000000
C     1.733000000     3.653000000    -3.419000000
H     2.682000000     4.122000000    -3.171000000
C    -0.705000000     3.629000000    -3.299000000
C    -0.751000000     2.428000000    -4.026000000
H    -1.692000000     1.986000000    -4.342000000
C     0.509000000     1.846000000    -4.369000000
O     0.388000000     0.556000000    -4.931000000
C     0.613000000    -0.662000000    -4.134000000
C    -0.375000000    -1.796000000    -4.482000000
C    -1.693000000    -1.511000000    -4.494000000
H    -1.977000000    -0.470000000    -4.360000000
C    -0.004000000    -3.110000000    -4.570000000
H     1.046000000    -3.368000000    -4.462000000
O     2.029000000    -1.048000000    -4.307000000
H     0.357000000    -0.335000000    -3.116000000
C     1.735000000     2.384000000    -4.040000000
C     3.082000000     1.782000000    -4.298000000
H     3.879000000     2.527000000    -4.281000000
H     3.073000000     1.313000000    -5.284000000
C     3.442000000     0.716000000    -3.263000000
C     2.926000000    -0.595000000    -3.322000000
C     3.294000000    -1.615000000    -2.544000000
H     2.987000000    -2.646000000    -2.699000000
C     4.011000000    -1.240000000    -1.410000000
O     4.220000000    -2.182000000    -0.476000000
C     3.526000000    -2.120000000     0.798000000
H     2.662000000    -1.448000000     0.687000000
C     2.993000000    -3.412000000     1.174000000
C     2.933000000    -3.797000000     2.480000000
H     3.535000000    -3.221000000     3.178000000
C     2.038000000    -3.992000000     0.330000000
H     1.911000000    -3.640000000    -0.691000000
C     1.218000000    -5.040000000     0.794000000
O     0.274000000    -5.633000000    -0.006000000
C     1.358000000    -5.572000000     2.090000000
H     0.784000000    -6.431000000     2.428000000
C     2.226000000    -4.911000000     2.980000000
O     2.310000000    -5.230000000     4.286000000
C     2.264000000    -4.311000000     5.353000000
C     1.165000000    -3.437000000     5.516000000
H     0.358000000    -3.388000000     4.789000000
C     3.185000000    -4.452000000     6.356000000
H     3.940000000    -5.234000000     6.326000000
C     3.147000000    -3.656000000     7.518000000
H     3.928000000    -3.676000000     8.274000000
C     2.213000000    -2.616000000     7.589000000
H     2.239000000    -2.032000000     8.506000000
C     1.203000000    -2.480000000     6.629000000
O     0.167000000    -1.702000000     6.900000000
C    -0.394000000    -0.666000000     6.120000000
C    -1.757000000    -0.360000000     6.218000000
H    -2.390000000    -1.039000000     6.783000000
C    -2.224000000     0.675000000     5.430000000
O    -3.553000000     0.858000000     5.349000000
C    -4.179000000     1.798000000     4.546000000
C    -4.688000000     1.422000000     3.298000000
H    -4.656000000     0.376000000     3.001000000
C    -4.151000000     3.101000000     4.980000000
H    -3.632000000     3.422000000     5.879000000
C    -4.714000000     4.039000000     4.115000000
H    -4.685000000     5.074000000     4.448000000
C    -5.327000000     3.687000000     2.879000000
H    -5.839000000     4.471000000     2.327000000
C    -5.279000000     2.348000000     2.466000000
O    -5.950000000     1.964000000     1.319000000
C    -5.422000000     2.377000000     0.117000000
C    -6.168000000     2.181000000    -1.020000000
H    -7.068000000     1.580000000    -0.920000000
C    -5.635000000     2.413000000    -2.301000000
O    -6.293000000     2.051000000    -3.450000000
C    -5.686000000     1.211000000    -4.329000000
C    -5.222000000    -0.057000000    -3.930000000
H    -5.262000000    -0.426000000    -2.908000000
C    -5.587000000     1.602000000    -5.639000000
H    -5.947000000     2.584000000    -5.934000000
C    -4.856000000     0.884000000    -6.594000000
H    -4.710000000     1.125000000    -7.644000000
C    -4.243000000    -0.352000000    -6.169000000
H    -3.653000000    -0.861000000    -6.926000000
C    -4.452000000    -0.781000000    -4.846000000
O    -4.021000000    -2.085000000    -4.579000000
C    -2.671000000    -2.444000000    -4.599000000
C    -2.353000000    -3.788000000    -4.766000000
H    -3.173000000    -4.500000000    -4.800000000
C    -0.984000000    -4.087000000    -4.818000000
O    -0.590000000    -5.430000000    -4.757000000
C     0.089000000    -5.939000000    -3.667000000
C     1.000000000    -6.931000000    -3.880000000
H     1.274000000    -7.328000000    -4.854000000
C     1.663000000    -7.572000000    -2.860000000
H     2.444000000    -8.307000000    -3.036000000
C     1.517000000    -7.051000000    -1.583000000
H     2.024000000    -7.555000000    -0.764000000
C     0.571000000    -5.996000000    -1.312000000
C    -0.242000000    -5.551000000    -2.342000000
H    -0.969000000    -4.749000000    -2.247000000
C    -1.326000000    -2.050000000    -0.394000000
H    -1.627000000    -3.049000000    -0.700000000
C    -0.075000000    -1.544000000    -0.770000000
H     0.518000000    -2.157000000    -1.444000000
C     0.397000000    -0.361000000    -0.269000000
H     1.362000000    -0.049000000    -0.519000000
C    -0.492000000     0.445000000     0.392000000
H    -0.142000000     1.381000000     0.820000000
C    -1.747000000    -0.006000000     0.765000000
H    -2.339000000     0.666000000     1.380000000
C    -2.217000000    -1.268000000     0.385000000
C    -3.596000000    -1.714000000     0.546000000
O    -4.198000000    -1.341000000     1.540000000
O    -4.079000000    -2.468000000    -0.306000000
O    -6.593000000    -0.891000000     0.365000000
H    -6.352000000     0.035000000     0.406000000
H    -5.943000000    -1.333000000     0.911000000
O    -5.598000000    -2.215000000     3.606000000
H    -5.338000000    -1.340000000     3.895000000
H    -5.167000000    -2.325000000     2.758000000
O    -4.346000000    -5.156000000     4.537000000
H    -3.934000000    -5.786000000     5.128000000
H    -3.689000000    -4.469000000     4.424000000
O    -3.269000000    -8.011000000     1.423000000
H    -4.106000000    -8.462000000     1.312000000
H    -3.510000000    -7.115000000     1.659000000
O    -5.959000000    -3.224000000    -2.180000000
H    -5.227000000    -2.748000000    -1.788000000
H    -6.415000000    -3.617000000    -1.436000000
O    -7.815000000    -3.473000000     4.829000000
H    -7.440000000    -4.329000000     5.037000000
H    -7.091000000    -2.985000000     4.436000000
O    -6.290000000    -3.841000000     0.586000000
H    -5.486000000    -3.437000000     0.259000000
H    -6.852000000    -3.102000000     0.818000000
O   -10.145000000    -4.023000000     1.343000000
H   -10.099000000    -4.911000000     1.697000000
H    -9.723000000    -3.478000000     2.007000000
O    -6.592000000    -6.502000000     0.824000000
H    -6.497000000    -5.559000000     0.957000000
H    -6.520000000    -6.619000000    -0.123000000
O    -5.086000000    -5.488000000    -3.433000000
H    -5.251000000    -4.552000000    -3.321000000
H    -4.873000000    -5.801000000    -2.553000000
O    -2.462000000    -3.278000000     3.350000000
H    -3.163000000    -2.675000000     3.101000000
H    -1.668000000    -2.886000000     2.985000000
O    -1.956000000    -7.443000000    -0.833000000
H    -2.313000000    -6.560000000    -0.928000000
H    -2.202000000    -7.707000000     0.054000000
O    -5.289000000    -0.672000000     6.772000000
H    -4.510000000    -0.457000000     6.258000000
H    -5.971000000    -0.097000000     6.425000000
O    -0.223000000    -1.955000000     2.526000000
H     0.719000000    -1.789000000     2.516000000
H    -0.446000000    -2.130000000     1.612000000
O    -8.995000000    -2.105000000    -0.582000000
H    -9.202000000    -2.872000000    -0.048000000
H    -8.332000000    -1.634000000    -0.078000000
O    -3.616000000    -5.102000000    -0.895000000
H    -3.653000000    -5.333000000     0.033000000
H    -3.819000000    -4.167000000    -0.917000000
O    -8.831000000    -1.699000000     2.262000000
H    -9.456000000    -1.027000000     1.990000000
H    -8.335000000    -1.291000000     2.971000000
O    -8.177000000    -1.983000000    -3.096000000
H    -7.302000000    -2.371000000    -3.065000000
H    -8.528000000    -2.112000000    -2.215000000
O    -3.549000000    -5.338000000     1.872000000
H    -3.921000000    -5.529000000     2.732000000
H    -3.005000000    -4.563000000     2.013000000
