215
-1459.21490
C     4.047000000     1.667000000    -2.409000000
H     3.568000000     1.054000000    -3.168000000
C     4.382000000     1.079000000    -1.171000000
C     4.806000000     1.970000000    -0.186000000
H     5.087000000     1.522000000     0.764000000
C     4.151000000    -0.350000000    -0.826000000
O     4.422000000    -1.152000000    -2.010000000
H     3.055000000    -0.427000000    -0.771000000
O     4.859000000    -0.971000000     0.218000000
C     4.291000000    -1.676000000     1.239000000
C     3.794000000    -1.084000000     2.382000000
H     4.122000000    -0.079000000     2.634000000
C     2.970000000    -1.830000000     3.300000000
O     2.565000000    -1.109000000     4.404000000
C     2.496000000    -3.131000000     3.047000000
C     1.501000000    -3.935000000     3.900000000
H     1.710000000    -4.996000000     3.747000000
C     0.053000000    -3.602000000     3.629000000
C    -0.755000000    -4.368000000     2.721000000
H    -0.276000000    -5.262000000     2.329000000
H     1.629000000    -3.759000000     4.970000000
C     2.954000000    -3.637000000     1.832000000
H     2.606000000    -4.607000000     1.485000000
C     3.820000000    -2.979000000     0.960000000
C     4.215000000    -3.582000000    -0.404000000
H     4.340000000    -4.663000000    -0.312000000
H     5.226000000    -3.263000000    -0.668000000
C     3.264000000    -3.219000000    -1.497000000
C     2.177000000    -4.064000000    -1.662000000
H     2.139000000    -4.915000000    -0.986000000
C     3.429000000    -2.071000000    -2.255000000
C     2.536000000    -1.861000000    -3.331000000
H     2.748000000    -1.060000000    -4.034000000
C     1.446000000    -2.749000000    -3.544000000
O     0.495000000    -2.392000000    -4.435000000
C    -0.796000000    -1.989000000    -3.969000000
C    -1.138000000    -0.740000000    -4.722000000
C    -2.083000000     0.082000000    -4.253000000
H    -2.801000000    -0.240000000    -3.503000000
C    -0.294000000    -0.194000000    -5.687000000
H     0.592000000    -0.712000000    -6.044000000
O    -1.909000000    -2.860000000    -3.975000000
H    -0.596000000    -1.713000000    -2.923000000
C     1.257000000    -3.807000000    -2.684000000
C     0.080000000    -4.750000000    -2.822000000
H     0.326000000    -5.722000000    -2.389000000
H    -0.054000000    -5.011000000    -3.874000000
C    -1.252000000    -4.268000000    -2.185000000
C    -1.443000000    -4.554000000    -0.866000000
H    -0.932000000    -5.372000000    -0.365000000
C    -2.166000000    -3.444000000    -2.804000000
C    -3.203000000    -2.852000000    -2.053000000
H    -3.850000000    -2.053000000    -2.406000000
C    -3.333000000    -3.131000000    -0.708000000
O    -4.237000000    -2.359000000     0.024000000
C    -3.797000000    -1.428000000     1.059000000
C    -4.755000000    -0.242000000     1.087000000
C    -5.264000000     0.182000000    -0.124000000
H    -4.966000000    -0.382000000    -1.004000000
C    -4.935000000     0.589000000     2.277000000
H    -4.573000000     0.265000000     3.250000000
O    -3.687000000    -2.120000000     2.363000000
H    -2.858000000    -0.978000000     0.703000000
C    -2.504000000    -4.086000000    -0.134000000
C    -2.782000000    -4.594000000     1.297000000
H    -2.537000000    -5.645000000     1.461000000
H    -3.833000000    -4.452000000     1.555000000
C    -1.979000000    -3.847000000     2.252000000
C    -2.477000000    -2.664000000     2.790000000
C    -1.722000000    -1.968000000     3.715000000
H    -2.070000000    -0.983000000     4.015000000
C    -0.458000000    -2.398000000     4.155000000
O     0.335000000    -1.630000000     5.003000000
C     1.187000000    -0.688000000     4.395000000
H     0.952000000    -0.549000000     3.329000000
C     1.042000000     0.765000000     4.847000000
C     2.181000000     1.568000000     5.008000000
H     3.091000000     0.978000000     5.083000000
C    -0.200000000     1.422000000     4.839000000
H    -1.107000000     0.908000000     4.528000000
C    -0.285000000     2.835000000     4.916000000
O    -1.485000000     3.574000000     4.758000000
C     0.888000000     3.591000000     5.108000000
H     0.756000000     4.663000000     4.992000000
C     2.136000000     2.943000000     5.146000000
O     3.293000000     3.729000000     5.137000000
C     4.323000000     3.415000000     4.187000000
C     4.133000000     3.861000000     2.916000000
H     3.205000000     4.305000000     2.565000000
C     5.484000000     2.777000000     4.623000000
H     5.528000000     2.561000000     5.688000000
C     6.554000000     2.572000000     3.714000000
H     7.488000000     2.203000000     4.129000000
C     6.456000000     3.059000000     2.439000000
H     7.278000000     2.946000000     1.737000000
C     5.243000000     3.671000000     2.040000000
O     5.072000000     4.149000000     0.776000000
C     4.826000000     3.336000000    -0.323000000
C     4.469000000     3.899000000    -1.548000000
H     4.377000000     4.982000000    -1.538000000
C     4.096000000     3.070000000    -2.591000000
O     3.511000000     3.672000000    -3.691000000
C     3.354000000     3.057000000    -4.929000000
C     2.075000000     2.755000000    -5.301000000
H     1.325000000     2.879000000    -4.523000000
C     4.410000000     2.735000000    -5.768000000
H     5.427000000     2.941000000    -5.442000000
C     4.200000000     1.987000000    -6.899000000
H     5.044000000     1.726000000    -7.533000000
C     2.861000000     1.707000000    -7.358000000
H     2.695000000     1.238000000    -8.325000000
C     1.828000000     2.051000000    -6.498000000
O     0.605000000     1.639000000    -6.938000000
C    -0.335000000     1.150000000    -6.050000000
C    -1.401000000     1.906000000    -5.686000000
H    -1.627000000     2.860000000    -6.157000000
C    -2.353000000     1.288000000    -4.896000000
O    -3.408000000     2.069000000    -4.474000000
C    -4.713000000     1.650000000    -4.183000000
C    -5.029000000     1.603000000    -2.854000000
H    -4.284000000     1.758000000    -2.078000000
C    -5.657000000     1.566000000    -5.172000000
H    -5.432000000     1.875000000    -6.189000000
C    -6.944000000     1.314000000    -4.810000000
H    -7.665000000     1.257000000    -5.621000000
C    -7.285000000     1.160000000    -3.510000000
H    -8.330000000     0.962000000    -3.286000000
C    -6.368000000     1.356000000    -2.540000000
O    -6.801000000     1.615000000    -1.227000000
C    -6.152000000     1.296000000    -0.095000000
C    -6.401000000     1.991000000     1.067000000
H    -7.092000000     2.829000000     1.035000000
C    -5.662000000     1.758000000     2.200000000
O    -5.840000000     2.568000000     3.332000000
C    -4.952000000     2.540000000     4.366000000
C    -5.298000000     2.354000000     5.681000000
H    -6.332000000     2.077000000     5.873000000
C    -4.325000000     2.427000000     6.707000000
H    -4.594000000     2.228000000     7.742000000
C    -3.045000000     2.867000000     6.411000000
H    -2.311000000     2.991000000     7.203000000
C    -2.749000000     3.088000000     5.069000000
C    -3.669000000     2.933000000     4.061000000
H    -3.413000000     3.253000000     3.054000000
C    -1.088000000     1.075000000    -0.367000000
H    -1.786000000     0.944000000    -1.190000000
C    -0.061000000     0.097000000    -0.236000000
H    -0.023000000    -0.790000000    -0.864000000
C     0.966000000     0.302000000     0.688000000
H     1.811000000    -0.403000000     0.781000000
C     1.050000000     1.457000000     1.506000000
H     1.924000000     1.518000000     2.148000000
C    -0.051000000     2.367000000     1.424000000
H    -0.036000000     3.282000000     2.011000000
C    -1.043000000     2.187000000     0.479000000
C    -2.153000000     3.227000000     0.245000000
O    -2.055000000     4.284000000     0.890000000
O    -3.024000000     3.050000000    -0.555000000
O    -5.401000000     7.732000000    -3.525000000
H    -4.704000000     7.904000000    -2.892000000
H    -6.019000000     8.453000000    -3.402000000
O    -3.284000000     8.529000000    -1.400000000
H    -2.512000000     8.387000000    -1.948000000
H    -3.059000000     8.123000000    -0.562000000
O    -2.707000000     6.087000000     2.770000000
H    -2.836000000     5.371000000     2.148000000
H    -1.814000000     5.966000000     3.092000000
O    -7.131000000     7.680000000     0.125000000
H    -6.730000000     8.512000000    -0.126000000
H    -6.441000000     7.215000000     0.599000000
O    -6.119000000     7.203000000     3.935000000
H    -7.046000000     6.972000000     3.879000000
H    -5.770000000     6.627000000     4.615000000
O    -4.448000000     5.342000000    -4.646000000
H    -4.395000000     6.271000000    -4.873000000
H    -4.473000000     5.330000000    -3.689000000
O    -1.861000000     3.522000000    -2.765000000
H    -2.495000000     3.122000000    -3.360000000
H    -2.329000000     3.599000000    -1.933000000
O    -1.390000000     5.771000000    -3.996000000
H    -1.489000000     5.034000000    -3.394000000
H    -0.990000000     5.390000000    -4.778000000
O     0.669000000     8.107000000    -1.396000000
H    -0.172000000     7.825000000    -1.035000000
H     0.467000000     8.376000000    -2.292000000
O     0.437000000     7.541000000     1.769000000
H     1.256000000     7.102000000     1.539000000
H     0.494000000     7.672000000     2.716000000
O     2.711000000     6.509000000     0.764000000
H     3.483000000     5.972000000     0.945000000
H     2.513000000     6.340000000    -0.157000000
O    -4.716000000     5.137000000    -1.279000000
H    -4.123000000     4.440000000    -1.000000000
H    -4.738000000     5.743000000    -0.538000000
O     1.649000000     5.685000000    -3.681000000
H     0.837000000     5.455000000    -3.229000000
H     2.258000000     4.984000000    -3.450000000
O    -1.534000000     6.863000000    -0.004000000
H    -0.904000000     7.049000000     0.692000000
H    -1.799000000     5.956000000     0.148000000
O    -0.823000000    10.250000000     2.075000000
H    -0.657000000     9.326000000     1.886000000
H    -0.091000000    10.713000000     1.668000000
O    -1.409000000     8.372000000    -3.303000000
H    -1.625000000     8.914000000    -4.062000000
H    -1.268000000     7.498000000    -3.666000000
O    -7.303000000     4.435000000    -2.001000000
H    -6.457000000     4.879000000    -2.051000000
H    -7.088000000     3.534000000    -1.760000000
O    -5.070000000     6.394000000     1.412000000
H    -5.521000000     6.605000000     2.230000000
H    -4.140000000     6.417000000     1.639000000
O     0.911000000     3.316000000    -1.904000000
H    -0.023000000     3.349000000    -2.113000000
H     0.955000000     2.835000000    -1.078000000
