215
-1460.89612
C    -1.996000000     1.005000000     4.038000000
H    -2.383000000     1.714000000     3.310000000
C    -0.681000000     1.100000000     4.435000000
C    -0.161000000     0.143000000     5.287000000
H     0.879000000     0.135000000     5.603000000
C     0.265000000     1.948000000     3.581000000
O    -0.201000000     3.305000000     3.506000000
H     0.262000000     1.536000000     2.561000000
O     1.592000000     1.975000000     4.146000000
C     2.665000000     1.837000000     3.319000000
C     3.264000000     0.561000000     3.305000000
H     2.884000000    -0.259000000     3.910000000
C     4.245000000     0.306000000     2.339000000
O     4.571000000    -0.988000000     2.156000000
C     4.536000000     1.251000000     1.370000000
C     5.548000000     0.956000000     0.275000000
H     6.153000000     1.819000000    -0.011000000
C     4.764000000     0.448000000    -1.034000000
C     4.468000000     1.399000000    -2.059000000
H     4.777000000     2.439000000    -1.988000000
H     6.223000000     0.135000000     0.527000000
C     4.018000000     2.526000000     1.385000000
H     4.426000000     3.228000000     0.663000000
C     3.064000000     2.827000000     2.370000000
C     2.449000000     4.242000000     2.477000000
H     3.082000000     5.034000000     2.072000000
H     2.177000000     4.406000000     3.522000000
C     1.119000000     4.286000000     1.734000000
C     1.157000000     4.806000000     0.447000000
H     2.059000000     5.114000000    -0.077000000
C    -0.046000000     3.947000000     2.300000000
C    -1.226000000     3.988000000     1.494000000
H    -2.227000000     3.771000000     1.858000000
C    -1.136000000     4.345000000     0.182000000
O    -2.335000000     4.334000000    -0.546000000
C    -2.536000000     3.227000000    -1.507000000
C    -4.009000000     2.795000000    -1.480000000
C    -4.532000000     2.191000000    -2.638000000
H    -3.904000000     2.177000000    -3.525000000
C    -4.815000000     2.918000000    -0.350000000
H    -4.416000000     3.486000000     0.487000000
O    -2.091000000     3.776000000    -2.798000000
H    -1.928000000     2.337000000    -1.290000000
C     0.018000000     4.885000000    -0.362000000
C     0.108000000     5.351000000    -1.817000000
H     0.944000000     6.044000000    -1.931000000
H    -0.777000000     5.963000000    -2.001000000
C     0.300000000     4.109000000    -2.711000000
C     1.545000000     3.556000000    -3.006000000
H     2.444000000     3.886000000    -2.491000000
C    -0.856000000     3.482000000    -3.196000000
C    -0.791000000     2.285000000    -4.003000000
H    -1.697000000     1.804000000    -4.363000000
C     0.506000000     1.825000000    -4.351000000
O     0.610000000     0.627000000    -5.045000000
C     1.051000000    -0.551000000    -4.250000000
C     0.163000000    -1.818000000    -4.365000000
C    -1.196000000    -1.597000000    -4.448000000
H    -1.626000000    -0.622000000    -4.663000000
C     0.668000000    -3.114000000    -4.258000000
H     1.708000000    -3.428000000    -4.301000000
O     2.480000000    -0.779000000    -4.312000000
H     0.809000000    -0.329000000    -3.200000000
C     1.642000000     2.444000000    -3.853000000
C     3.025000000     1.946000000    -4.161000000
H     3.638000000     2.820000000    -4.394000000
H     3.001000000     1.470000000    -5.143000000
C     3.631000000     0.996000000    -3.126000000
C     3.248000000    -0.406000000    -3.229000000
C     3.591000000    -1.316000000    -2.225000000
H     3.209000000    -2.333000000    -2.182000000
C     4.368000000    -0.841000000    -1.168000000
O     4.521000000    -1.720000000    -0.139000000
C     3.793000000    -1.589000000     1.090000000
H     2.900000000    -0.995000000     0.846000000
C     3.244000000    -2.875000000     1.539000000
C     2.807000000    -3.144000000     2.832000000
H     2.880000000    -2.347000000     3.567000000
C     3.123000000    -3.951000000     0.665000000
H     3.635000000    -3.902000000    -0.293000000
C     2.663000000    -5.187000000     1.067000000
O     2.546000000    -6.247000000     0.213000000
C     2.280000000    -5.487000000     2.380000000
H     2.101000000    -6.496000000     2.743000000
C     2.515000000    -4.451000000     3.238000000
O     2.360000000    -4.695000000     4.536000000
C     2.151000000    -3.782000000     5.533000000
C     0.842000000    -3.310000000     5.746000000
H     0.099000000    -3.602000000     5.008000000
C     3.183000000    -3.411000000     6.369000000
H     4.207000000    -3.679000000     6.123000000
C     2.918000000    -2.545000000     7.425000000
H     3.817000000    -2.218000000     7.941000000
C     1.585000000    -2.123000000     7.690000000
H     1.483000000    -1.407000000     8.502000000
C     0.591000000    -2.378000000     6.757000000
O    -0.607000000    -1.742000000     6.808000000
C    -0.992000000    -0.874000000     5.830000000
C    -2.357000000    -0.754000000     5.635000000
H    -2.990000000    -1.462000000     6.165000000
C    -2.904000000     0.171000000     4.761000000
O    -4.278000000     0.169000000     4.487000000
C    -4.945000000     1.239000000     3.968000000
C    -5.454000000     1.148000000     2.693000000
H    -5.284000000     0.202000000     2.185000000
C    -5.235000000     2.337000000     4.792000000
H    -4.833000000     2.316000000     5.802000000
C    -6.016000000     3.365000000     4.297000000
H    -6.047000000     4.233000000     4.951000000
C    -6.361000000     3.368000000     2.936000000
H    -6.959000000     4.126000000     2.436000000
C    -6.189000000     2.208000000     2.199000000
O    -6.745000000     2.134000000     0.933000000
C    -6.072000000     2.269000000    -0.243000000
C    -6.598000000     1.734000000    -1.442000000
H    -7.579000000     1.268000000    -1.390000000
C    -5.863000000     1.701000000    -2.581000000
O    -6.359000000     1.174000000    -3.753000000
C    -5.536000000     0.427000000    -4.543000000
C    -4.795000000    -0.693000000    -4.076000000
H    -4.758000000    -0.915000000    -3.013000000
C    -5.443000000     0.822000000    -5.847000000
H    -5.917000000     1.747000000    -6.164000000
C    -4.750000000     0.037000000    -6.730000000
H    -4.549000000     0.278000000    -7.771000000
C    -4.081000000    -1.086000000    -6.293000000
H    -3.417000000    -1.592000000    -6.989000000
C    -4.011000000    -1.357000000    -4.964000000
O    -3.364000000    -2.470000000    -4.601000000
C    -2.054000000    -2.665000000    -4.533000000
C    -1.577000000    -3.997000000    -4.418000000
H    -2.143000000    -4.917000000    -4.543000000
C    -0.209000000    -4.197000000    -4.130000000
O     0.256000000    -5.499000000    -4.014000000
C     1.492000000    -5.815000000    -3.326000000
C     2.762000000    -5.920000000    -3.963000000
H     2.873000000    -5.799000000    -5.038000000
C     3.882000000    -6.321000000    -3.238000000
H     4.796000000    -6.553000000    -3.779000000
C     3.813000000    -6.515000000    -1.895000000
H     4.597000000    -6.851000000    -1.221000000
C     2.625000000    -6.180000000    -1.188000000
C     1.514000000    -5.875000000    -1.958000000
H     0.560000000    -5.713000000    -1.464000000
C    -1.239000000    -2.015000000    -1.063000000
H    -1.355000000    -2.933000000    -1.634000000
C    -0.014000000    -1.428000000    -0.686000000
H     0.981000000    -1.814000000    -0.891000000
C    -0.053000000    -0.250000000     0.070000000
H     0.906000000     0.158000000     0.372000000
C    -1.229000000     0.311000000     0.487000000
H    -1.172000000     1.256000000     1.022000000
C    -2.452000000    -0.289000000     0.135000000
H    -3.379000000     0.202000000     0.418000000
C    -2.470000000    -1.436000000    -0.635000000
C    -3.741000000    -2.142000000    -1.029000000
O    -4.808000000    -1.575000000    -0.735000000
O    -3.643000000    -3.287000000    -1.523000000
O    -4.913000000    -2.827000000     1.846000000
H    -5.578000000    -2.265000000     2.245000000
H    -4.857000000    -2.525000000     0.939000000
O    -7.633000000    -1.631000000    -6.615000000
H    -7.723000000    -0.840000000    -6.084000000
H    -6.845000000    -2.057000000    -6.278000000
O    -1.072000000    -7.575000000     1.089000000
H    -1.261000000    -7.657000000     2.024000000
H    -1.561000000    -6.801000000     0.812000000
O    -8.754000000     0.061000000     1.656000000
H    -8.683000000    -0.654000000     2.288000000
H    -8.022000000     0.641000000     1.867000000
O    -4.355000000    -7.153000000     1.505000000
H    -4.842000000    -7.871000000     1.098000000
H    -4.640000000    -6.372000000     1.030000000
O    -5.644000000    -4.128000000    -6.655000000
H    -6.014000000    -5.010000000    -6.658000000
H    -4.698000000    -4.265000000    -6.599000000
O    -3.144000000    -6.994000000    -2.547000000
H    -2.940000000    -6.557000000    -1.720000000
H    -3.716000000    -6.380000000    -3.008000000
O    -8.443000000    -5.067000000    -2.894000000
H    -7.771000000    -5.710000000    -2.666000000
H    -8.062000000    -4.224000000    -2.647000000
O    -5.012000000    -4.937000000     0.013000000
H    -4.482000000    -4.371000000    -0.549000000
H    -5.156000000    -4.421000000     0.806000000
O    -7.082000000    -2.264000000    -1.903000000
H    -7.502000000    -2.534000000    -1.086000000
H    -6.190000000    -2.029000000    -1.647000000
O    -6.442000000    -6.624000000    -1.846000000
H    -6.090000000    -6.038000000    -1.176000000
H    -5.910000000    -6.448000000    -2.622000000
O    -2.373000000    -6.778000000     3.308000000
H    -2.208000000    -5.911000000     3.680000000
H    -3.266000000    -6.726000000     2.967000000
O    -0.831000000    -2.856000000     2.387000000
H    -1.713000000    -2.541000000     2.584000000
H    -0.492000000    -2.233000000     1.744000000
O    -4.779000000    -4.935000000    -3.333000000
H    -5.076000000    -4.496000000    -4.130000000
H    -4.346000000    -4.248000000    -2.828000000
O    -9.668000000    -1.253000000    -2.897000000
H   -10.017000000    -1.851000000    -3.557000000
H    -8.873000000    -1.682000000    -2.581000000
O    -8.447000000    -2.653000000     0.574000000
H    -8.044000000    -2.911000000     1.403000000
H    -8.437000000    -1.696000000     0.592000000
O    -3.713000000    -3.769000000     4.161000000
H    -4.266000000    -3.504000000     3.426000000
H    -4.279000000    -3.687000000     4.929000000
O    -6.924000000    -1.568000000     3.390000000
H    -7.004000000    -2.516000000     3.492000000
H    -6.789000000    -1.242000000     4.281000000
O    -1.918000000    -4.925000000    -0.534000000
H    -1.983000000    -4.540000000     0.341000000
H    -2.541000000    -4.425000000    -1.062000000
