215
-1419.57721
C    -1.968000000     0.958000000     3.514000000
H    -2.272000000     1.846000000     2.965000000
C    -0.620000000     0.824000000     4.004000000
C    -0.284000000    -0.314000000     4.796000000
H     0.674000000    -0.320000000     5.310000000
C     0.404000000     1.846000000     3.530000000
O    -0.027000000     3.234000000     3.455000000
H     0.660000000     1.640000000     2.481000000
O     1.631000000     1.811000000     4.268000000
C     2.732000000     1.587000000     3.479000000
C     3.219000000     0.341000000     3.411000000
H     2.745000000    -0.456000000     3.979000000
C     4.157000000    -0.032000000     2.419000000
O     4.292000000    -1.444000000     2.192000000
C     4.719000000     0.898000000     1.555000000
C     5.615000000     0.562000000     0.379000000
H     6.299000000     1.360000000     0.083000000
C     4.781000000     0.237000000    -0.883000000
C     4.423000000     1.218000000    -1.804000000
H     4.763000000     2.238000000    -1.646000000
H     6.261000000    -0.265000000     0.678000000
C     4.291000000     2.216000000     1.706000000
H     4.552000000     2.951000000     0.950000000
C     3.330000000     2.573000000     2.628000000
C     2.692000000     4.010000000     2.626000000
H     3.386000000     4.817000000     2.382000000
H     2.356000000     4.335000000     3.613000000
C     1.418000000     4.174000000     1.774000000
C     1.474000000     4.763000000     0.498000000
H     2.431000000     4.797000000    -0.016000000
C     0.163000000     3.945000000     2.306000000
C    -0.984000000     4.219000000     1.585000000
H    -1.978000000     4.071000000     2.000000000
C    -0.890000000     4.689000000     0.244000000
O    -2.028000000     4.887000000    -0.496000000
C    -2.343000000     3.748000000    -1.428000000
C    -3.831000000     3.274000000    -1.313000000
C    -4.462000000     2.588000000    -2.411000000
H    -3.948000000     2.410000000    -3.353000000
C    -4.606000000     3.688000000    -0.199000000
H    -4.114000000     4.214000000     0.615000000
O    -1.903000000     4.044000000    -2.788000000
H    -1.811000000     2.821000000    -1.169000000
C     0.353000000     5.018000000    -0.254000000
C     0.434000000     5.584000000    -1.679000000
H     1.279000000     6.270000000    -1.769000000
H    -0.493000000     6.124000000    -1.885000000
C     0.563000000     4.343000000    -2.592000000
C     1.790000000     3.844000000    -2.990000000
H     2.712000000     4.239000000    -2.572000000
C    -0.625000000     3.754000000    -3.167000000
C    -0.505000000     2.676000000    -4.085000000
H    -1.352000000     2.094000000    -4.438000000
C     0.725000000     2.089000000    -4.360000000
O     0.645000000     0.816000000    -4.891000000
C     1.027000000    -0.326000000    -4.026000000
C     0.087000000    -1.457000000    -4.210000000
C    -1.237000000    -1.300000000    -4.577000000
H    -1.671000000    -0.304000000    -4.605000000
C     0.513000000    -2.793000000    -4.028000000
H     1.558000000    -3.011000000    -3.821000000
O     2.347000000    -0.732000000    -4.132000000
H     0.948000000     0.017000000    -2.984000000
C     1.847000000     2.687000000    -3.773000000
C     3.232000000     1.976000000    -3.968000000
H     3.912000000     2.822000000    -3.846000000
H     3.272000000     1.659000000    -5.013000000
C     3.683000000     0.874000000    -3.008000000
C     3.278000000    -0.431000000    -3.173000000
C     3.582000000    -1.424000000    -2.156000000
H     3.208000000    -2.444000000    -2.196000000
C     4.273000000    -1.053000000    -1.005000000
O     4.522000000    -2.036000000    -0.104000000
C     3.736000000    -2.161000000     1.153000000
H     2.753000000    -1.694000000     0.990000000
C     3.557000000    -3.600000000     1.592000000
C     3.214000000    -3.956000000     2.891000000
H     3.160000000    -3.210000000     3.680000000
C     3.513000000    -4.624000000     0.617000000
H     3.796000000    -4.547000000    -0.430000000
C     2.943000000    -5.770000000     0.956000000
O     2.813000000    -6.699000000    -0.050000000
C     2.602000000    -6.120000000     2.228000000
H     2.162000000    -7.103000000     2.378000000
C     2.741000000    -5.196000000     3.225000000
O     2.113000000    -5.436000000     4.458000000
C     1.908000000    -4.446000000     5.451000000
C     0.642000000    -3.927000000     5.432000000
H    -0.015000000    -4.131000000     4.590000000
C     2.868000000    -4.007000000     6.330000000
H     3.887000000    -4.387000000     6.334000000
C     2.486000000    -2.929000000     7.147000000
H     3.216000000    -2.802000000     7.942000000
C     1.272000000    -2.282000000     7.121000000
H     0.966000000    -1.441000000     7.737000000
C     0.335000000    -2.817000000     6.210000000
O    -0.912000000    -2.205000000     6.084000000
C    -1.227000000    -1.219000000     5.202000000
C    -2.558000000    -1.038000000     4.770000000
H    -3.377000000    -1.556000000     5.263000000
C    -2.909000000     0.021000000     3.935000000
O    -4.255000000     0.014000000     3.484000000
C    -4.954000000     1.192000000     3.516000000
C    -5.465000000     1.651000000     2.365000000
H    -5.126000000     1.135000000     1.470000000
C    -5.290000000     1.878000000     4.677000000
H    -4.865000000     1.515000000     5.609000000
C    -6.078000000     2.974000000     4.678000000
H    -6.151000000     3.547000000     5.599000000
C    -6.701000000     3.454000000     3.480000000
H    -7.382000000     4.285000000     3.318000000
C    -6.295000000     2.809000000     2.312000000
O    -6.615000000     3.410000000     1.097000000
C    -5.938000000     3.247000000    -0.074000000
C    -6.454000000     2.465000000    -1.107000000
H    -7.509000000     2.231000000    -0.996000000
C    -5.772000000     2.145000000    -2.228000000
O    -6.370000000     1.341000000    -3.206000000
C    -5.614000000     0.767000000    -4.168000000
C    -4.859000000    -0.386000000    -3.954000000
H    -4.854000000    -0.912000000    -3.003000000
C    -5.696000000     1.341000000    -5.443000000
H    -6.207000000     2.293000000    -5.561000000
C    -4.964000000     0.776000000    -6.505000000
H    -5.051000000     1.252000000    -7.478000000
C    -4.071000000    -0.338000000    -6.259000000
H    -3.588000000    -0.841000000    -7.093000000
C    -4.086000000    -0.950000000    -4.972000000
O    -3.514000000    -2.145000000    -4.693000000
C    -2.158000000    -2.400000000    -4.638000000
C    -1.680000000    -3.685000000    -4.381000000
H    -2.447000000    -4.450000000    -4.282000000
C    -0.370000000    -3.892000000    -4.038000000
O    -0.031000000    -5.185000000    -3.787000000
C     1.171000000    -5.656000000    -3.258000000
C     2.143000000    -6.016000000    -4.164000000
H     1.949000000    -5.882000000    -5.225000000
C     3.343000000    -6.467000000    -3.739000000
H     4.140000000    -6.718000000    -4.435000000
C     3.554000000    -6.643000000    -2.387000000
H     4.548000000    -6.839000000    -1.992000000
C     2.561000000    -6.428000000    -1.405000000
C     1.365000000    -5.816000000    -1.865000000
H     0.634000000    -5.411000000    -1.170000000
C    -0.806000000    -2.085000000    -1.104000000
H    -0.556000000    -3.040000000    -1.558000000
C     0.180000000    -1.168000000    -0.703000000
H     1.259000000    -1.293000000    -0.743000000
C    -0.181000000     0.101000000    -0.213000000
H     0.457000000     0.811000000     0.280000000
C    -1.498000000     0.411000000    -0.087000000
H    -1.721000000     1.408000000     0.284000000
C    -2.473000000    -0.441000000    -0.568000000
H    -3.529000000    -0.205000000    -0.472000000
C    -2.165000000    -1.762000000    -0.930000000
C    -3.263000000    -2.766000000    -1.305000000
O    -4.438000000    -2.484000000    -1.062000000
O    -3.052000000    -3.966000000    -1.445000000
O    -4.829000000    -2.940000000     1.410000000
H    -5.551000000    -2.318000000     1.502000000
H    -4.593000000    -2.896000000     0.483000000
O    -1.184000000    -7.805000000     0.533000000
H    -2.064000000    -7.993000000     0.860000000
H    -1.210000000    -6.879000000     0.294000000
O    -7.305000000    -2.769000000    -4.639000000
H    -7.638000000    -2.026000000    -4.135000000
H    -7.003000000    -3.391000000    -3.977000000
O    -3.810000000    -7.629000000     1.734000000
H    -4.485000000    -8.296000000     1.609000000
H    -4.146000000    -6.859000000     1.275000000
O    -2.736000000    -7.522000000    -2.725000000
H    -3.533000000    -7.773000000    -2.258000000
H    -2.402000000    -6.768000000    -2.239000000
O    -4.847000000    -5.288000000     0.261000000
H    -4.263000000    -4.945000000    -0.416000000
H    -5.141000000    -4.512000000     0.739000000
O    -4.972000000    -5.017000000    -6.963000000
H    -4.499000000    -5.554000000    -6.328000000
H    -4.375000000    -4.294000000    -7.157000000
O    -7.156000000    -2.031000000    -0.879000000
H    -7.564000000    -2.848000000    -0.593000000
H    -6.232000000    -2.251000000    -0.992000000
O    -6.744000000    -6.344000000    -1.695000000
H    -6.580000000    -6.148000000    -0.772000000
H    -6.176000000    -5.740000000    -2.173000000
O    -2.215000000    -6.096000000     3.666000000
H    -2.561000000    -5.205000000     3.615000000
H    -2.621000000    -6.553000000     2.930000000
O    -6.541000000    -8.224000000    -3.662000000
H    -6.038000000    -8.000000000    -2.879000000
H    -7.306000000    -7.650000000    -3.627000000
O    -1.520000000    -2.944000000     1.967000000
H    -1.978000000    -2.960000000     2.807000000
H    -1.578000000    -2.033000000     1.680000000
O    -4.924000000    -4.584000000    -3.309000000
H    -4.670000000    -3.716000000    -3.622000000
H    -4.645000000    -4.598000000    -2.393000000
O    -9.288000000    -0.453000000    -1.962000000
H    -8.945000000     0.136000000    -2.634000000
H    -8.516000000    -0.724000000    -1.465000000
O    -8.612000000    -4.267000000     0.134000000
H    -8.335000000    -4.271000000     1.050000000
H    -9.470000000    -3.842000000     0.145000000
O    -3.472000000    -6.870000000    -5.631000000
H    -3.330000000    -6.836000000    -4.685000000
H    -3.539000000    -7.804000000    -5.829000000
O    -3.764000000    -3.892000000     3.655000000
H    -4.006000000    -3.566000000     2.788000000
H    -4.345000000    -3.427000000     4.257000000
O    -7.429000000    -1.859000000     2.248000000
H    -8.040000000    -2.594000000     2.284000000
H    -6.967000000    -1.890000000     3.086000000
O    -1.550000000    -5.175000000     0.461000000
H    -1.220000000    -4.489000000     1.042000000
H    -2.093000000    -4.710000000    -0.175000000
