215
-1470.05001
C    -0.397000000     1.473000000     4.676000000
H    -0.997000000     2.186000000     4.117000000
C     0.909000000     1.319000000     4.232000000
C     1.737000000     0.409000000     4.761000000
H     2.784000000     0.336000000     4.479000000
C     1.426000000     2.163000000     3.121000000
O     0.702000000     3.432000000     3.040000000
H     1.179000000     1.659000000     2.175000000
O     2.799000000     2.430000000     3.236000000
C     3.526000000     2.241000000     2.032000000
C     4.036000000     1.080000000     1.695000000
H     4.035000000     0.299000000     2.452000000
C     4.574000000     0.825000000     0.439000000
O     4.942000000    -0.452000000     0.159000000
C     4.546000000     1.783000000    -0.605000000
C     5.087000000     1.486000000    -1.997000000
H     5.317000000     2.319000000    -2.664000000
C     3.993000000     0.781000000    -2.753000000
C     3.156000000     1.595000000    -3.587000000
H     3.304000000     2.672000000    -3.574000000
H     6.011000000     0.908000000    -1.941000000
C     3.876000000     2.988000000    -0.282000000
H     3.762000000     3.758000000    -1.042000000
C     3.430000000     3.256000000     1.022000000
C     2.750000000     4.625000000     1.196000000
H     3.305000000     5.317000000     0.559000000
H     2.852000000     5.004000000     2.215000000
C     1.262000000     4.563000000     0.918000000
C     0.795000000     4.907000000    -0.295000000
H     1.561000000     5.149000000    -1.027000000
C     0.372000000     3.933000000     1.828000000
C    -0.983000000     3.903000000     1.545000000
H    -1.547000000     3.422000000     2.340000000
C    -1.467000000     4.407000000     0.366000000
O    -2.740000000     4.290000000    -0.003000000
C    -3.067000000     2.999000000    -0.648000000
C    -4.303000000     2.375000000    -0.046000000
C    -5.057000000     1.448000000    -0.789000000
H    -4.716000000     1.247000000    -1.802000000
C    -4.609000000     2.629000000     1.319000000
H    -4.076000000     3.387000000     1.887000000
O    -3.253000000     3.332000000    -1.961000000
H    -2.184000000     2.358000000    -0.511000000
C    -0.544000000     4.827000000    -0.598000000
C    -1.069000000     5.102000000    -1.977000000
H    -0.380000000     5.801000000    -2.456000000
H    -2.043000000     5.590000000    -2.044000000
C    -1.095000000     3.820000000    -2.816000000
C     0.009000000     3.495000000    -3.645000000
H     0.891000000     4.130000000    -3.671000000
C    -2.158000000     2.910000000    -2.715000000
C    -2.203000000     1.749000000    -3.435000000
H    -3.006000000     1.051000000    -3.213000000
C    -1.113000000     1.395000000    -4.209000000
O    -1.091000000     0.179000000    -4.827000000
C    -0.362000000    -0.915000000    -4.193000000
C    -1.156000000    -2.208000000    -4.129000000
C    -2.560000000    -2.068000000    -3.961000000
H    -2.984000000    -1.085000000    -4.148000000
C    -0.632000000    -3.475000000    -4.131000000
H     0.432000000    -3.674000000    -4.234000000
O     0.967000000    -1.114000000    -4.768000000
H    -0.115000000    -0.665000000    -3.151000000
C    -0.043000000     2.279000000    -4.372000000
C     1.178000000     1.938000000    -5.170000000
H     1.646000000     2.861000000    -5.519000000
H     0.963000000     1.428000000    -6.111000000
C     2.112000000     1.010000000    -4.323000000
C     2.005000000    -0.356000000    -4.313000000
C     2.776000000    -1.152000000    -3.483000000
H     2.654000000    -2.232000000    -3.476000000
C     3.767000000    -0.584000000    -2.713000000
O     4.502000000    -1.441000000    -1.967000000
C     4.107000000    -1.407000000    -0.583000000
H     3.082000000    -1.009000000    -0.535000000
C     3.951000000    -2.706000000     0.179000000
C     4.427000000    -2.816000000     1.504000000
H     5.168000000    -2.100000000     1.850000000
C     3.121000000    -3.685000000    -0.291000000
H     2.665000000    -3.574000000    -1.272000000
C     2.858000000    -4.780000000     0.470000000
O     1.941000000    -5.811000000     0.017000000
C     3.325000000    -4.936000000     1.743000000
H     3.053000000    -5.773000000     2.381000000
C     4.095000000    -3.915000000     2.297000000
O     4.645000000    -4.124000000     3.530000000
C     4.435000000    -3.328000000     4.600000000
C     3.232000000    -2.624000000     4.876000000
H     2.433000000    -2.639000000     4.140000000
C     5.391000000    -3.414000000     5.586000000
H     6.314000000    -3.910000000     5.296000000
C     5.298000000    -2.686000000     6.742000000
H     6.194000000    -2.576000000     7.349000000
C     4.166000000    -1.907000000     7.012000000
H     4.043000000    -1.432000000     7.982000000
C     3.161000000    -1.860000000     6.086000000
O     2.040000000    -1.213000000     6.572000000
C     1.232000000    -0.390000000     5.805000000
C    -0.134000000    -0.366000000     6.131000000
H    -0.573000000    -1.014000000     6.885000000
C    -0.996000000     0.544000000     5.511000000
O    -2.283000000     0.546000000     5.816000000
C    -3.150000000     1.583000000     5.471000000
C    -4.221000000     1.356000000     4.596000000
H    -4.455000000     0.334000000     4.311000000
C    -2.968000000     2.905000000     5.994000000
H    -2.218000000     3.109000000     6.754000000
C    -3.813000000     3.941000000     5.551000000
H    -3.854000000     4.950000000     5.953000000
C    -4.814000000     3.672000000     4.615000000
H    -5.434000000     4.466000000     4.208000000
C    -5.051000000     2.427000000     4.141000000
O    -5.965000000     2.193000000     3.171000000
C    -5.624000000     1.893000000     1.893000000
C    -6.347000000     0.999000000     1.207000000
H    -7.202000000     0.516000000     1.672000000
C    -6.094000000     0.764000000    -0.159000000
O    -6.833000000    -0.187000000    -0.802000000
C    -6.529000000    -0.583000000    -2.064000000
C    -5.779000000    -1.727000000    -2.263000000
H    -5.429000000    -2.359000000    -1.451000000
C    -6.806000000     0.259000000    -3.155000000
H    -7.482000000     1.108000000    -3.085000000
C    -6.543000000    -0.080000000    -4.429000000
H    -6.827000000     0.556000000    -5.263000000
C    -5.811000000    -1.262000000    -4.672000000
H    -5.613000000    -1.671000000    -5.660000000
C    -5.408000000    -2.046000000    -3.578000000
O    -4.751000000    -3.241000000    -3.781000000
C    -3.358000000    -3.205000000    -3.802000000
C    -2.807000000    -4.435000000    -3.755000000
H    -3.432000000    -5.291000000    -3.515000000
C    -1.478000000    -4.562000000    -3.919000000
O    -0.972000000    -5.874000000    -3.774000000
C     0.261000000    -6.148000000    -3.192000000
C     1.294000000    -6.508000000    -4.044000000
H     1.122000000    -6.657000000    -5.107000000
C     2.521000000    -6.833000000    -3.569000000
H     3.276000000    -7.283000000    -4.209000000
C     2.730000000    -6.589000000    -2.195000000
H     3.678000000    -6.852000000    -1.734000000
C     1.737000000    -6.044000000    -1.334000000
C     0.481000000    -5.921000000    -1.854000000
H    -0.378000000    -5.534000000    -1.312000000
C    -0.603000000    -1.592000000    -0.573000000
H    -0.166000000    -2.500000000    -0.982000000
C     0.123000000    -0.439000000    -0.577000000
H     1.117000000    -0.376000000    -1.013000000
C    -0.457000000     0.643000000     0.112000000
H     0.004000000     1.659000000     0.064000000
C    -1.605000000     0.500000000     0.869000000
H    -1.874000000     1.355000000     1.483000000
C    -2.338000000    -0.680000000     0.907000000
H    -3.235000000    -0.769000000     1.514000000
C    -1.852000000    -1.781000000     0.159000000
C    -2.498000000    -3.136000000     0.231000000
O    -3.496000000    -3.380000000     0.925000000
O    -1.840000000    -4.143000000     0.073000000
O    -5.612000000    -1.993000000     2.102000000
H    -5.340000000    -2.336000000     2.953000000
H    -4.842000000    -2.101000000     1.543000000
O    -8.693000000    -3.678000000    -1.690000000
H    -8.222000000    -3.766000000    -0.861000000
H    -9.601000000    -3.517000000    -1.435000000
O    -1.963000000    -8.937000000     0.021000000
H    -2.239000000    -9.153000000     0.912000000
H    -1.671000000    -8.027000000     0.075000000
O    -3.074000000    -5.162000000     2.983000000
H    -3.200000000    -4.493000000     2.310000000
H    -2.416000000    -5.752000000     2.614000000
O    -4.760000000    -3.005000000     4.698000000
H    -3.804000000    -2.956000000     4.673000000
H    -4.997000000    -2.614000000     5.539000000
O    -5.611000000    -5.130000000    -1.812000000
H    -6.034000000    -5.004000000    -0.963000000
H    -5.571000000    -4.253000000    -2.192000000
O    -2.985000000    -8.331000000    -2.427000000
H    -2.823000000    -8.856000000    -1.643000000
H    -2.986000000    -7.426000000    -2.114000000
O    -6.952000000    -4.628000000     0.389000000
H    -6.317000000    -4.147000000     0.919000000
H    -7.667000000    -4.827000000     0.993000000
O    -2.080000000    -2.856000000     4.211000000
H    -1.384000000    -2.399000000     3.739000000
H    -2.359000000    -3.549000000     3.613000000
O    -5.187000000    -5.911000000     4.611000000
H    -4.477000000    -6.381000000     4.174000000
H    -4.852000000    -5.021000000     4.724000000
O     0.970000000    -1.381000000     2.209000000
H     0.353000000    -1.796000000     1.607000000
H     1.130000000    -0.517000000     1.830000000
O    -5.259000000    -7.148000000     1.684000000
H    -5.246000000    -6.232000000     1.403000000
H    -4.439000000    -7.263000000     2.164000000
O    -3.052000000    -6.238000000    -0.823000000
H    -2.633000000    -5.410000000    -0.590000000
H    -3.932000000    -5.990000000    -1.107000000
O     0.052000000    -7.397000000     4.039000000
H    -0.171000000    -6.914000000     3.244000000
H     0.704000000    -6.851000000     4.477000000
O    -7.238000000    -4.310000000     3.469000000
H    -7.069000000    -5.146000000     3.903000000
H    -6.503000000    -3.753000000     3.726000000
O    -7.067000000    -6.441000000    -4.078000000
H    -6.631000000    -7.262000000    -3.852000000
H    -7.062000000    -5.935000000    -3.266000000
O    -8.277000000    -1.843000000     2.103000000
H    -7.405000000    -1.460000000     2.004000000
H    -8.114000000    -2.735000000     2.409000000
O    -0.630000000    -6.316000000     1.423000000
H    -0.993000000    -5.588000000     0.918000000
H     0.239000000    -6.458000000     1.047000000
O    -0.690000000    -4.373000000     6.234000000
H    -0.067000000    -4.827000000     5.666000000
H    -1.251000000    -3.885000000     5.632000000
