215
-1458.12937
C    -0.231000000     2.001000000     4.831000000
H    -0.817000000     2.673000000     4.210000000
C     1.079000000     1.804000000     4.426000000
C     1.836000000     0.752000000     5.003000000
H     2.813000000     0.422000000     4.660000000
C     1.658000000     2.482000000     3.176000000
O     1.087000000     3.825000000     3.035000000
H     1.283000000     1.845000000     2.361000000
O     3.091000000     2.483000000     3.193000000
C     3.703000000     2.095000000     2.038000000
C     4.210000000     0.789000000     1.931000000
H     4.114000000     0.129000000     2.789000000
C     4.689000000     0.398000000     0.674000000
O     4.796000000    -0.959000000     0.537000000
C     4.752000000     1.344000000    -0.385000000
C     5.261000000     0.902000000    -1.699000000
H     5.780000000     1.707000000    -2.225000000
C     4.035000000     0.255000000    -2.540000000
C     3.381000000     1.110000000    -3.417000000
H     3.689000000     2.139000000    -3.583000000
H     5.977000000     0.087000000    -1.585000000
C     4.265000000     2.637000000    -0.215000000
H     4.396000000     3.381000000    -0.997000000
C     3.763000000     3.058000000     1.021000000
C     3.214000000     4.466000000     1.125000000
H     3.779000000     5.195000000     0.541000000
H     3.357000000     4.733000000     2.174000000
C     1.703000000     4.456000000     0.761000000
C     1.248000000     4.796000000    -0.539000000
H     1.976000000     4.974000000    -1.326000000
C     0.737000000     4.253000000     1.762000000
C    -0.658000000     4.276000000     1.466000000
H    -1.370000000     3.880000000     2.186000000
C    -1.044000000     4.571000000     0.150000000
O    -2.375000000     4.542000000    -0.157000000
C    -2.913000000     3.331000000    -0.719000000
C    -4.203000000     2.614000000    -0.109000000
C    -5.184000000     2.002000000    -0.927000000
H    -5.179000000     2.139000000    -2.005000000
C    -4.265000000     2.549000000     1.309000000
H    -3.582000000     3.067000000     1.977000000
O    -3.086000000     3.514000000    -2.157000000
H    -2.137000000     2.571000000    -0.549000000
C    -0.128000000     4.848000000    -0.843000000
C    -0.616000000     5.172000000    -2.232000000
H     0.184000000     5.652000000    -2.800000000
H    -1.474000000     5.834000000    -2.097000000
C    -0.853000000     3.932000000    -3.045000000
C     0.228000000     3.376000000    -3.742000000
H     1.120000000     3.997000000    -3.738000000
C    -2.006000000     3.154000000    -2.976000000
C    -2.128000000     1.924000000    -3.692000000
H    -3.035000000     1.339000000    -3.564000000
C    -1.033000000     1.459000000    -4.335000000
O    -1.174000000     0.223000000    -4.918000000
C    -0.492000000    -0.846000000    -4.163000000
C    -1.301000000    -2.087000000    -4.116000000
C    -2.662000000    -2.088000000    -3.790000000
H    -2.972000000    -1.098000000    -3.466000000
C    -0.688000000    -3.377000000    -4.260000000
H     0.390000000    -3.460000000    -4.370000000
O     0.816000000    -1.124000000    -4.825000000
H    -0.284000000    -0.443000000    -3.161000000
C     0.215000000     2.095000000    -4.346000000
C     1.444000000     1.634000000    -5.054000000
H     2.067000000     2.463000000    -5.394000000
H     1.029000000     1.147000000    -5.939000000
C     2.231000000     0.749000000    -4.141000000
C     1.849000000    -0.559000000    -4.089000000
C     2.419000000    -1.494000000    -3.251000000
H     2.165000000    -2.545000000    -3.362000000
C     3.414000000    -1.012000000    -2.367000000
O     3.942000000    -1.915000000    -1.500000000
C     3.718000000    -1.702000000    -0.049000000
H     2.900000000    -0.984000000     0.115000000
C     3.373000000    -3.059000000     0.543000000
C     3.460000000    -3.238000000     1.895000000
H     3.808000000    -2.349000000     2.416000000
C     3.035000000    -4.185000000    -0.266000000
H     2.980000000    -4.141000000    -1.350000000
C     2.582000000    -5.358000000     0.377000000
O     2.137000000    -6.447000000    -0.301000000
C     2.557000000    -5.469000000     1.720000000
H     2.166000000    -6.345000000     2.230000000
C     3.199000000    -4.440000000     2.509000000
O     3.285000000    -4.525000000     3.906000000
C     3.634000000    -3.471000000     4.794000000
C     2.645000000    -2.747000000     5.441000000
H     1.587000000    -2.860000000     5.215000000
C     4.966000000    -3.036000000     5.007000000
H     5.758000000    -3.637000000     4.566000000
C     5.300000000    -2.081000000     5.967000000
H     6.308000000    -1.716000000     6.148000000
C     4.316000000    -1.304000000     6.513000000
H     4.494000000    -0.360000000     7.021000000
C     3.024000000    -1.613000000     6.167000000
O     1.995000000    -0.837000000     6.758000000
C     1.284000000     0.096000000     6.128000000
C     0.008000000     0.270000000     6.560000000
H    -0.399000000    -0.269000000     7.412000000
C    -0.759000000     1.141000000     5.806000000
O    -2.049000000     1.222000000     6.225000000
C    -3.023000000     1.973000000     5.704000000
C    -3.853000000     1.447000000     4.734000000
H    -3.785000000     0.451000000     4.304000000
C    -3.079000000     3.303000000     6.121000000
H    -2.465000000     3.612000000     6.963000000
C    -4.039000000     4.083000000     5.526000000
H    -4.098000000     5.125000000     5.830000000
C    -4.833000000     3.591000000     4.492000000
H    -5.570000000     4.174000000     3.944000000
C    -4.670000000     2.261000000     4.070000000
O    -5.577000000     1.811000000     3.153000000
C    -5.344000000     1.846000000     1.821000000
C    -6.274000000     1.153000000     1.038000000
H    -7.019000000     0.529000000     1.525000000
C    -6.139000000     1.215000000    -0.335000000
O    -7.072000000     0.478000000    -1.049000000
C    -6.862000000    -0.352000000    -2.117000000
C    -5.783000000    -1.297000000    -2.191000000
H    -5.164000000    -1.510000000    -1.324000000
C    -7.602000000    -0.033000000    -3.258000000
H    -8.341000000     0.762000000    -3.207000000
C    -7.200000000    -0.600000000    -4.467000000
H    -7.728000000    -0.393000000    -5.394000000
C    -6.237000000    -1.638000000    -4.473000000
H    -6.102000000    -2.270000000    -5.347000000
C    -5.568000000    -2.021000000    -3.319000000
O    -4.808000000    -3.168000000    -3.311000000
C    -3.437000000    -3.225000000    -3.631000000
C    -2.887000000    -4.462000000    -3.801000000
H    -3.472000000    -5.376000000    -3.735000000
C    -1.479000000    -4.536000000    -4.073000000
O    -0.963000000    -5.837000000    -4.098000000
C     0.320000000    -6.096000000    -3.547000000
C     1.344000000    -6.279000000    -4.426000000
H     1.304000000    -6.224000000    -5.511000000
C     2.653000000    -6.508000000    -3.948000000
H     3.402000000    -6.724000000    -4.707000000
C     2.905000000    -6.617000000    -2.562000000
H     3.915000000    -6.742000000    -2.180000000
C     1.857000000    -6.440000000    -1.624000000
C     0.544000000    -6.169000000    -2.157000000
H    -0.330000000    -6.023000000    -1.527000000
C    -0.714000000    -1.391000000    -0.327000000
H    -0.373000000    -2.240000000    -0.914000000
C     0.080000000    -0.264000000    -0.378000000
H     0.950000000    -0.246000000    -1.030000000
C    -0.232000000     0.862000000     0.378000000
H     0.368000000     1.651000000     0.202000000
C    -1.356000000     0.812000000     1.150000000
H    -1.685000000     1.746000000     1.598000000
C    -2.238000000    -0.281000000     1.179000000
H    -3.176000000    -0.198000000     1.721000000
C    -1.881000000    -1.434000000     0.497000000
C    -2.765000000    -2.684000000     0.504000000
O    -3.831000000    -2.684000000     1.083000000
O    -2.452000000    -3.702000000    -0.086000000
O    -4.991000000    -1.884000000     3.277000000
H    -4.565000000    -2.598000000     3.751000000
H    -4.688000000    -1.982000000     2.374000000
O    -8.780000000    -3.230000000    -1.003000000
H    -8.031000000    -3.404000000    -0.433000000
H    -9.344000000    -3.996000000    -0.897000000
O    -3.569000000    -8.900000000    -0.616000000
H    -3.426000000    -9.124000000     0.303000000
H    -3.355000000    -7.969000000    -0.672000000
O    -3.406000000    -5.114000000     2.289000000
H    -3.504000000    -4.234000000     1.927000000
H    -2.764000000    -5.537000000     1.719000000
O    -6.662000000    -6.208000000    -0.772000000
H    -6.592000000    -5.324000000    -0.413000000
H    -7.283000000    -6.124000000    -1.495000000
O    -8.761000000    -5.625000000     2.033000000
H    -8.909000000    -4.865000000     2.596000000
H    -7.856000000    -5.881000000     2.210000000
O    -6.139000000    -3.934000000     0.879000000
H    -5.820000000    -4.598000000     1.490000000
H    -5.608000000    -3.160000000     1.067000000
O    -1.163000000    -3.671000000     3.696000000
H    -1.921000000    -4.160000000     3.374000000
H    -0.407000000    -4.167000000     3.381000000
O    -3.126000000    -6.495000000     5.321000000
H    -3.826000000    -7.145000000     5.278000000
H    -2.745000000    -6.494000000     4.443000000
O     0.499000000    -1.501000000     2.623000000
H     0.462000000    -0.963000000     1.832000000
H    -0.237000000    -2.107000000     2.535000000
O    -6.237000000    -6.175000000     2.800000000
H    -5.307000000    -5.960000000     2.732000000
H    -6.391000000    -6.275000000     3.740000000
O    -3.560000000    -6.028000000    -0.885000000
H    -3.150000000    -5.165000000    -0.949000000
H    -4.495000000    -5.858000000    -0.997000000
O    -1.091000000    -6.901000000     3.316000000
H    -0.917000000    -6.481000000     2.474000000
H    -0.326000000    -6.690000000     3.852000000
O    -4.042000000    -3.788000000     5.166000000
H    -3.214000000    -3.309000000     5.189000000
H    -3.785000000    -4.705000000     5.066000000
O    -7.796000000     0.414000000     4.005000000
H    -8.425000000     1.071000000     3.707000000
H    -6.940000000     0.810000000     3.840000000
O    -6.417000000    -5.023000000    -4.804000000
H    -7.176000000    -5.389000000    -4.349000000
H    -5.946000000    -4.534000000    -4.129000000
O    -8.103000000    -1.728000000     2.246000000
H    -7.337000000    -2.299000000     2.305000000
H    -7.990000000    -1.101000000     2.960000000
O    -0.780000000    -5.538000000     1.005000000
H    -1.265000000    -4.973000000     0.403000000
H     0.036000000    -5.735000000     0.544000000
O    -0.643000000    -3.555000000     6.320000000
H    -0.127000000    -4.315000000     6.589000000
H    -0.731000000    -3.649000000     5.371000000
