215
-1470.74128
C    -0.206000000     1.174000000     5.192000000
H    -0.794000000     2.021000000     4.847000000
C     1.101000000     1.027000000     4.688000000
C     1.931000000    -0.085000000     5.077000000
H     2.938000000    -0.270000000     4.711000000
C     1.596000000     1.875000000     3.465000000
O     0.942000000     3.145000000     3.423000000
H     1.285000000     1.309000000     2.574000000
O     3.010000000     2.117000000     3.399000000
C     3.592000000     2.049000000     2.110000000
C     4.193000000     0.849000000     1.784000000
H     4.269000000     0.033000000     2.499000000
C     4.600000000     0.665000000     0.467000000
O     4.990000000    -0.636000000     0.218000000
C     4.515000000     1.667000000    -0.512000000
C     4.856000000     1.532000000    -1.947000000
H     5.150000000     2.459000000    -2.444000000
C     3.772000000     0.877000000    -2.781000000
C     2.933000000     1.784000000    -3.422000000
H     2.974000000     2.862000000    -3.287000000
H     5.769000000     0.931000000    -1.939000000
C     3.968000000     2.885000000    -0.103000000
H     4.025000000     3.761000000    -0.745000000
C     3.568000000     3.092000000     1.237000000
C     2.887000000     4.342000000     1.599000000
H     3.332000000     5.151000000     1.015000000
H     3.027000000     4.535000000     2.664000000
C     1.378000000     4.282000000     1.282000000
C     0.845000000     4.833000000     0.078000000
H     1.490000000     5.204000000    -0.715000000
C     0.495000000     3.657000000     2.206000000
C    -0.861000000     3.688000000     1.963000000
H    -1.467000000     3.166000000     2.700000000
C    -1.357000000     4.213000000     0.810000000
O    -2.712000000     4.132000000     0.684000000
C    -3.120000000     3.016000000    -0.154000000
C    -4.282000000     2.094000000     0.496000000
C    -4.904000000     1.160000000    -0.310000000
H    -4.687000000     1.162000000    -1.375000000
C    -4.451000000     2.170000000     1.883000000
H    -4.016000000     2.960000000     2.490000000
O    -3.413000000     3.453000000    -1.547000000
H    -2.292000000     2.319000000    -0.351000000
C    -0.522000000     4.824000000    -0.139000000
C    -1.148000000     5.305000000    -1.410000000
H    -0.482000000     6.007000000    -1.917000000
H    -2.056000000     5.904000000    -1.321000000
C    -1.276000000     4.171000000    -2.440000000
C    -0.188000000     3.865000000    -3.309000000
H     0.722000000     4.414000000    -3.080000000
C    -2.360000000     3.282000000    -2.423000000
C    -2.335000000     2.116000000    -3.205000000
H    -3.181000000     1.434000000    -3.184000000
C    -1.307000000     1.932000000    -4.103000000
O    -1.371000000     0.757000000    -4.815000000
C    -0.647000000    -0.388000000    -4.278000000
C    -1.447000000    -1.670000000    -4.441000000
C    -2.829000000    -1.664000000    -4.413000000
H    -3.401000000    -0.743000000    -4.335000000
C    -0.788000000    -2.926000000    -4.421000000
H     0.275000000    -2.937000000    -4.191000000
O     0.545000000    -0.524000000    -5.011000000
H    -0.516000000    -0.164000000    -3.209000000
C    -0.167000000     2.742000000    -4.144000000
C     1.040000000     2.338000000    -5.012000000
H     1.671000000     3.219000000    -5.149000000
H     0.723000000     1.751000000    -5.877000000
C     1.910000000     1.371000000    -4.226000000
C     1.657000000    -0.015000000    -4.333000000
C     2.502000000    -0.916000000    -3.662000000
H     2.262000000    -1.966000000    -3.807000000
C     3.490000000    -0.468000000    -2.773000000
O     4.320000000    -1.367000000    -2.026000000
C     4.088000000    -1.421000000    -0.589000000
H     3.098000000    -0.976000000    -0.409000000
C     3.921000000    -2.856000000    -0.078000000
C     4.335000000    -3.215000000     1.200000000
H     4.881000000    -2.540000000     1.853000000
C     3.320000000    -3.844000000    -0.842000000
H     2.889000000    -3.548000000    -1.794000000
C     3.214000000    -5.152000000    -0.376000000
O     2.533000000    -6.075000000    -1.094000000
C     3.604000000    -5.501000000     0.988000000
H     3.380000000    -6.484000000     1.396000000
C     4.071000000    -4.455000000     1.677000000
O     4.604000000    -4.606000000     2.969000000
C     4.495000000    -3.802000000     4.089000000
C     3.266000000    -3.327000000     4.474000000
H     2.430000000    -3.532000000     3.810000000
C     5.604000000    -3.419000000     4.760000000
H     6.597000000    -3.652000000     4.385000000
C     5.528000000    -2.631000000     5.869000000
H     6.412000000    -2.354000000     6.437000000
C     4.273000000    -2.287000000     6.336000000
H     4.313000000    -1.729000000     7.268000000
C     3.080000000    -2.634000000     5.637000000
O     1.891000000    -2.252000000     6.180000000
C     1.346000000    -0.976000000     5.999000000
C     0.071000000    -0.803000000     6.489000000
H    -0.404000000    -1.577000000     7.086000000
C    -0.711000000     0.302000000     6.112000000
O    -2.050000000     0.312000000     6.589000000
C    -2.953000000     1.271000000     6.155000000
C    -3.811000000     0.916000000     5.157000000
H    -3.837000000    -0.123000000     4.841000000
C    -2.970000000     2.543000000     6.698000000
H    -2.145000000     2.830000000     7.344000000
C    -3.840000000     3.530000000     6.223000000
H    -3.845000000     4.561000000     6.568000000
C    -4.707000000     3.217000000     5.142000000
H    -5.323000000     3.971000000     4.659000000
C    -4.750000000     1.887000000     4.644000000
O    -5.712000000     1.502000000     3.777000000
C    -5.400000000     1.344000000     2.435000000
C    -6.179000000     0.462000000     1.660000000
H    -6.960000000    -0.123000000     2.139000000
C    -5.953000000     0.402000000     0.269000000
O    -6.750000000    -0.408000000    -0.630000000
C    -6.577000000    -0.526000000    -2.025000000
C    -5.844000000    -1.524000000    -2.539000000
H    -5.376000000    -2.300000000    -1.938000000
C    -7.270000000     0.331000000    -2.804000000
H    -7.883000000     1.137000000    -2.408000000
C    -7.214000000     0.149000000    -4.166000000
H    -7.826000000     0.777000000    -4.808000000
C    -6.428000000    -0.832000000    -4.766000000
H    -6.491000000    -0.874000000    -5.850000000
C    -5.768000000    -1.724000000    -3.944000000
O    -4.958000000    -2.725000000    -4.504000000
C    -3.588000000    -2.849000000    -4.397000000
C    -2.931000000    -4.025000000    -4.580000000
H    -3.509000000    -4.944000000    -4.614000000
C    -1.526000000    -4.120000000    -4.555000000
O    -0.915000000    -5.347000000    -4.386000000
C     0.403000000    -5.536000000    -4.073000000
C     1.373000000    -5.371000000    -5.001000000
H     1.069000000    -5.279000000    -6.041000000
C     2.719000000    -5.399000000    -4.668000000
H     3.496000000    -5.198000000    -5.401000000
C     3.053000000    -5.600000000    -3.317000000
H     4.084000000    -5.624000000    -2.974000000
C     2.087000000    -5.806000000    -2.391000000
C     0.751000000    -5.822000000    -2.768000000
H     0.100000000    -6.004000000    -1.916000000
C    -1.647000000    -3.241000000    -0.340000000
H    -1.620000000    -4.317000000    -0.487000000
C    -0.560000000    -2.369000000    -0.480000000
H     0.337000000    -2.811000000    -0.907000000
C    -0.626000000    -1.102000000     0.090000000
H     0.220000000    -0.409000000    -0.012000000
C    -1.753000000    -0.655000000     0.771000000
H    -1.836000000     0.322000000     1.242000000
C    -2.877000000    -1.470000000     0.780000000
H    -3.753000000    -1.152000000     1.339000000
C    -2.828000000    -2.779000000     0.283000000
C    -3.973000000    -3.749000000     0.443000000
O    -5.056000000    -3.433000000     0.940000000
O    -3.834000000    -4.846000000    -0.045000000
O    -5.239000000    -2.886000000     3.623000000
H    -4.390000000    -3.325000000     3.679000000
H    -5.449000000    -2.888000000     2.689000000
O    -6.298000000    -9.085000000     0.601000000
H    -5.853000000    -8.309000000     0.942000000
H    -5.781000000    -9.821000000     0.929000000
O    -6.389000000    -2.067000000     5.932000000
H    -6.024000000    -2.301000000     5.079000000
H    -5.788000000    -1.407000000     6.278000000
O    -5.875000000    -5.390000000    -1.938000000
H    -6.676000000    -4.925000000    -1.697000000
H    -5.220000000    -5.080000000    -1.312000000
O    -5.264000000    -7.630000000     4.602000000
H    -5.903000000    -7.145000000     4.079000000
H    -4.420000000    -7.422000000     4.202000000
O    -2.904000000    -6.789000000    -1.486000000
H    -3.366000000    -6.043000000    -1.103000000
H    -3.538000000    -7.180000000    -2.087000000
O    -1.223000000    -8.394000000     0.025000000
H    -1.825000000    -8.080000000    -0.649000000
H    -0.930000000    -7.600000000     0.473000000
O    -8.642000000    -7.256000000     1.182000000
H    -7.896000000    -7.730000000     0.814000000
H    -9.039000000    -6.814000000     0.432000000
O    -4.700000000    -7.693000000    -3.157000000
H    -5.049000000    -7.914000000    -4.020000000
H    -5.337000000    -7.080000000    -2.790000000
O    -0.348000000    -2.616000000     2.902000000
H     0.333000000    -3.193000000     2.559000000
H    -0.833000000    -2.329000000     2.128000000
O    -7.323000000    -3.669000000    -0.371000000
H    -7.622000000    -2.761000000    -0.419000000
H    -6.523000000    -3.630000000     0.154000000
O     0.702000000    -4.589000000     1.333000000
H    -0.127000000    -5.065000000     1.391000000
H     1.166000000    -5.002000000     0.605000000
O    -2.490000000    -5.972000000     3.840000000
H    -2.831000000    -5.131000000     4.143000000
H    -2.085000000    -6.360000000     4.615000000
O     0.757000000    -7.766000000     2.138000000
H     0.298000000    -8.597000000     2.266000000
H     0.067000000    -7.104000000     2.171000000
O    -5.321000000    -6.580000000     1.216000000
H    -6.048000000    -5.957000000     1.214000000
H    -4.575000000    -6.079000000     0.885000000
O    -7.014000000    -5.272000000     3.833000000
H    -6.214000000    -4.813000000     3.579000000
H    -7.682000000    -4.587000000     3.870000000
O    -0.755000000    -8.589000000    -3.038000000
H    -1.334000000    -8.105000000    -2.450000000
H    -0.082000000    -8.957000000    -2.465000000
O    -1.554000000    -6.017000000     1.462000000
H    -1.913000000    -6.249000000     2.318000000
H    -2.319000000    -5.956000000     0.890000000
O    -2.464000000    -3.261000000     4.469000000
H    -1.607000000    -3.120000000     4.068000000
H    -2.364000000    -2.942000000     5.366000000
