215
-1431.57916
C    -0.928000000     1.219000000     4.523000000
H    -1.672000000     1.752000000     3.936000000
C     0.410000000     1.469000000     4.461000000
C     1.322000000     0.613000000     5.126000000
H     2.389000000     0.814000000     5.068000000
C     1.018000000     2.356000000     3.294000000
O     0.384000000     3.661000000     3.214000000
H     0.942000000     1.882000000     2.305000000
O     2.370000000     2.677000000     3.551000000
C     3.223000000     2.470000000     2.481000000
C     3.723000000     1.153000000     2.237000000
H     3.404000000     0.370000000     2.920000000
C     4.353000000     0.932000000     1.043000000
O     4.739000000    -0.370000000     0.868000000
C     4.481000000     1.903000000     0.111000000
C     5.137000000     1.472000000    -1.222000000
H     5.551000000     2.354000000    -1.715000000
C     4.171000000     0.889000000    -2.233000000
C     3.443000000     1.670000000    -3.099000000
H     3.549000000     2.751000000    -3.110000000
H     5.949000000     0.755000000    -1.088000000
C     3.896000000     3.144000000     0.285000000
H     3.842000000     3.874000000    -0.519000000
C     3.318000000     3.467000000     1.490000000
C     2.554000000     4.789000000     1.492000000
H     3.065000000     5.591000000     0.956000000
H     2.477000000     5.047000000     2.550000000
C     1.087000000     4.586000000     1.061000000
C     0.633000000     4.982000000    -0.206000000
H     1.345000000     5.227000000    -0.990000000
C     0.089000000     4.147000000     1.928000000
C    -1.181000000     4.036000000     1.526000000
H    -1.893000000     3.600000000     2.222000000
C    -1.618000000     4.516000000     0.345000000
O    -2.974000000     4.180000000     0.048000000
C    -3.097000000     2.916000000    -0.659000000
C    -4.324000000     2.192000000    -0.140000000
C    -4.987000000     1.294000000    -0.967000000
H    -4.607000000     1.256000000    -1.984000000
C    -4.685000000     2.201000000     1.220000000
H    -4.227000000     2.919000000     1.896000000
O    -3.197000000     3.242000000    -2.093000000
H    -2.226000000     2.259000000    -0.515000000
C    -0.713000000     4.980000000    -0.578000000
C    -1.033000000     5.217000000    -2.020000000
H    -0.433000000     5.986000000    -2.512000000
H    -2.057000000     5.587000000    -2.102000000
C    -0.990000000     3.910000000    -2.793000000
C     0.165000000     3.574000000    -3.410000000
H     1.040000000     4.122000000    -3.066000000
C    -2.082000000     3.038000000    -2.826000000
C    -1.934000000     1.888000000    -3.612000000
H    -2.798000000     1.230000000    -3.659000000
C    -0.792000000     1.601000000    -4.319000000
O    -0.740000000     0.386000000    -4.878000000
C    -0.049000000    -0.749000000    -4.234000000
C    -0.788000000    -2.085000000    -4.516000000
C    -2.126000000    -2.074000000    -4.691000000
H    -2.603000000    -1.117000000    -4.495000000
C    -0.061000000    -3.269000000    -4.404000000
H     1.018000000    -3.303000000    -4.276000000
O     1.268000000    -0.845000000    -4.723000000
H     0.018000000    -0.583000000    -3.148000000
C     0.350000000     2.421000000    -4.230000000
C     1.694000000     2.024000000    -4.799000000
H     2.224000000     2.959000000    -4.994000000
H     1.776000000     1.409000000    -5.697000000
C     2.429000000     1.092000000    -3.900000000
C     2.256000000    -0.242000000    -3.982000000
C     2.995000000    -1.008000000    -3.090000000
H     2.937000000    -2.091000000    -3.163000000
C     3.952000000    -0.505000000    -2.219000000
O     4.490000000    -1.354000000    -1.321000000
C     3.871000000    -1.233000000     0.047000000
H     2.890000000    -0.750000000    -0.065000000
C     3.589000000    -2.489000000     0.741000000
C     3.896000000    -2.770000000     2.006000000
H     4.393000000    -1.981000000     2.564000000
C     2.971000000    -3.451000000    -0.065000000
H     2.656000000    -3.305000000    -1.095000000
C     2.673000000    -4.644000000     0.421000000
O     1.934000000    -5.562000000    -0.261000000
C     2.984000000    -4.984000000     1.745000000
H     2.844000000    -6.001000000     2.104000000
C     3.608000000    -4.031000000     2.543000000
O     3.917000000    -4.260000000     3.870000000
C     3.927000000    -3.280000000     4.816000000
C     2.784000000    -2.670000000     5.300000000
H     1.818000000    -2.817000000     4.824000000
C     5.141000000    -3.027000000     5.473000000
H     6.082000000    -3.496000000     5.199000000
C     5.225000000    -2.123000000     6.545000000
H     6.136000000    -2.019000000     7.128000000
C     4.056000000    -1.549000000     6.984000000
H     4.102000000    -0.920000000     7.869000000
C     2.896000000    -1.775000000     6.385000000
O     1.697000000    -1.142000000     6.810000000
C     0.882000000    -0.400000000     5.971000000
C    -0.462000000    -0.666000000     6.033000000
H    -0.868000000    -1.408000000     6.717000000
C    -1.367000000     0.221000000     5.439000000
O    -2.749000000     0.138000000     5.698000000
C    -3.623000000     1.113000000     5.411000000
C    -4.492000000     0.852000000     4.406000000
H    -4.497000000    -0.173000000     4.045000000
C    -3.518000000     2.402000000     5.917000000
H    -2.835000000     2.563000000     6.747000000
C    -4.288000000     3.401000000     5.359000000
H    -4.238000000     4.416000000     5.745000000
C    -5.298000000     3.085000000     4.368000000
H    -5.856000000     3.870000000     3.863000000
C    -5.459000000     1.756000000     3.996000000
O    -6.302000000     1.372000000     2.915000000
C    -5.845000000     1.480000000     1.612000000
C    -6.418000000     0.580000000     0.756000000
H    -7.173000000    -0.121000000     1.102000000
C    -5.937000000     0.436000000    -0.507000000
O    -6.501000000    -0.550000000    -1.296000000
C    -6.176000000    -0.798000000    -2.701000000
C    -5.369000000    -1.885000000    -3.058000000
H    -5.060000000    -2.575000000    -2.277000000
C    -6.668000000     0.011000000    -3.676000000
H    -7.246000000     0.892000000    -3.408000000
C    -6.420000000    -0.211000000    -5.036000000
H    -6.885000000     0.588000000    -5.608000000
C    -5.566000000    -1.270000000    -5.451000000
H    -5.338000000    -1.560000000    -6.473000000
C    -5.016000000    -2.105000000    -4.368000000
O    -4.167000000    -3.168000000    -4.631000000
C    -2.821000000    -3.266000000    -4.618000000
C    -2.119000000    -4.488000000    -4.706000000
H    -2.636000000    -5.444000000    -4.734000000
C    -0.737000000    -4.438000000    -4.644000000
O    -0.073000000    -5.630000000    -4.583000000
C     1.006000000    -5.883000000    -3.744000000
C     2.050000000    -6.579000000    -4.306000000
H     1.836000000    -7.003000000    -5.284000000
C     3.146000000    -6.835000000    -3.470000000
H     3.922000000    -7.539000000    -3.759000000
C     3.193000000    -6.461000000    -2.094000000
H     3.994000000    -6.821000000    -1.454000000
C     2.083000000    -5.782000000    -1.567000000
C     1.018000000    -5.440000000    -2.435000000
H     0.162000000    -4.920000000    -2.013000000
C    -1.074000000    -2.521000000    -0.290000000
H    -0.699000000    -3.344000000    -0.892000000
C    -0.151000000    -1.517000000    -0.081000000
H     0.846000000    -1.539000000    -0.514000000
C    -0.560000000    -0.316000000     0.530000000
H     0.188000000     0.408000000     0.622000000
C    -1.893000000    -0.125000000     0.875000000
H    -2.220000000     0.859000000     1.198000000
C    -2.799000000    -1.148000000     0.573000000
H    -3.842000000    -0.941000000     0.801000000
C    -2.407000000    -2.398000000    -0.014000000
C    -3.391000000    -3.554000000    -0.121000000
O    -4.569000000    -3.349000000     0.063000000
O    -2.994000000    -4.690000000    -0.208000000
O    -5.718000000    -2.557000000     2.567000000
H    -4.963000000    -2.104000000     2.943000000
H    -5.439000000    -2.793000000     1.682000000
O    -0.676000000    -7.816000000    -1.762000000
H    -1.138000000    -7.761000000    -0.926000000
H    -0.966000000    -7.044000000    -2.248000000
O    -2.573000000    -5.098000000     2.827000000
H    -1.726000000    -4.845000000     2.460000000
H    -2.760000000    -5.950000000     2.433000000
O    -9.129000000    -1.891000000    -1.042000000
H    -8.385000000    -1.309000000    -1.197000000
H    -9.108000000    -2.060000000    -0.100000000
O    -6.792000000    -7.683000000     2.848000000
H    -6.602000000    -7.010000000     2.194000000
H    -7.377000000    -7.252000000     3.471000000
O    -6.760000000    -4.693000000    -1.474000000
H    -7.546000000    -4.882000000    -0.961000000
H    -6.344000000    -3.964000000    -1.014000000
O     0.913000000    -5.729000000     4.388000000
H     0.506000000    -5.038000000     3.865000000
H     0.967000000    -5.362000000     5.270000000
O    -5.884000000    -7.085000000    -4.230000000
H    -6.671000000    -6.656000000    -3.894000000
H    -5.167000000    -6.697000000    -3.728000000
O    -1.837000000    -6.997000000     0.514000000
H    -2.531000000    -6.355000000     0.363000000
H    -2.101000000    -7.449000000     1.316000000
O    -7.904000000    -7.533000000    -0.004000000
H    -7.956000000    -6.738000000     0.527000000
H    -8.659000000    -7.478000000    -0.591000000
O    -5.240000000    -8.537000000    -0.970000000
H    -6.178000000    -8.422000000    -0.818000000
H    -5.052000000    -7.989000000    -1.732000000
O    -3.102000000    -2.592000000     3.715000000
H    -2.196000000    -2.318000000     3.570000000
H    -3.133000000    -3.494000000     3.393000000
O    -5.290000000    -4.762000000     4.306000000
H    -5.428000000    -4.160000000     3.574000000
H    -4.743000000    -5.459000000     3.943000000
O    -0.658000000    -1.660000000     3.176000000
H    -0.745000000    -0.710000000     3.251000000
H    -0.620000000    -1.824000000     2.234000000
O    -5.116000000    -6.185000000     1.042000000
H    -4.744000000    -5.326000000     0.841000000
H    -5.261000000    -6.590000000     0.187000000
O    -4.302000000    -6.098000000    -2.076000000
H    -3.729000000    -5.734000000    -1.401000000
H    -5.144000000    -5.665000000    -1.935000000
O    -8.340000000    -4.916000000     0.593000000
H    -8.035000000    -4.393000000     1.335000000
H    -9.283000000    -5.003000000     0.734000000
O    -2.085000000    -7.843000000     3.174000000
H    -2.681000000    -8.390000000     3.686000000
H    -1.212000000    -8.157000000     3.407000000
O    -0.288000000    -4.953000000     1.477000000
H    -0.746000000    -5.598000000     0.939000000
H     0.619000000    -4.990000000     1.174000000
