215
-1477.29813
C    -0.814000000     1.349000000     4.727000000
H    -1.360000000     2.033000000     4.084000000
C     0.593000000     1.422000000     4.594000000
C     1.369000000     0.681000000     5.459000000
H     2.454000000     0.716000000     5.401000000
C     1.245000000     2.273000000     3.471000000
O     0.569000000     3.596000000     3.325000000
H     1.104000000     1.758000000     2.510000000
O     2.621000000     2.398000000     3.660000000
C     3.307000000     2.169000000     2.521000000
C     3.887000000     0.899000000     2.371000000
H     3.866000000     0.171000000     3.177000000
C     4.480000000     0.464000000     1.221000000
O     4.710000000    -0.865000000     1.117000000
C     4.628000000     1.465000000     0.183000000
C     5.415000000     1.098000000    -1.063000000
H     6.072000000     1.891000000    -1.428000000
C     4.369000000     0.597000000    -2.092000000
C     3.720000000     1.459000000    -2.973000000
H     3.999000000     2.500000000    -3.115000000
H     6.047000000     0.248000000    -0.798000000
C     4.173000000     2.789000000     0.382000000
H     4.263000000     3.407000000    -0.508000000
C     3.451000000     3.164000000     1.512000000
C     2.773000000     4.492000000     1.656000000
H     3.414000000     5.251000000     1.202000000
H     2.764000000     4.684000000     2.731000000
C     1.251000000     4.573000000     1.194000000
C     0.937000000     4.866000000    -0.157000000
H     1.741000000     5.067000000    -0.861000000
C     0.279000000     4.106000000     2.081000000
C    -1.088000000     4.064000000     1.647000000
H    -1.866000000     3.694000000     2.310000000
C    -1.385000000     4.467000000     0.332000000
O    -2.617000000     4.180000000    -0.149000000
C    -2.871000000     2.992000000    -0.937000000
C    -4.179000000     2.290000000    -0.461000000
C    -4.926000000     1.475000000    -1.369000000
H    -4.647000000     1.450000000    -2.419000000
C    -4.605000000     2.416000000     0.833000000
H    -3.954000000     2.898000000     1.557000000
O    -2.904000000     3.365000000    -2.336000000
H    -2.023000000     2.340000000    -0.681000000
C    -0.399000000     4.876000000    -0.562000000
C    -0.697000000     5.248000000    -1.982000000
H    -0.126000000     6.116000000    -2.316000000
H    -1.727000000     5.601000000    -2.066000000
C    -0.655000000     4.014000000    -2.865000000
C     0.594000000     3.625000000    -3.434000000
H     1.492000000     4.207000000    -3.243000000
C    -1.794000000     3.217000000    -3.020000000
C    -1.668000000     2.095000000    -3.839000000
H    -2.523000000     1.425000000    -3.815000000
C    -0.479000000     1.809000000    -4.482000000
O    -0.404000000     0.613000000    -5.138000000
C     0.035000000    -0.490000000    -4.351000000
C    -0.790000000    -1.795000000    -4.458000000
C    -2.226000000    -1.721000000    -4.547000000
H    -2.737000000    -0.769000000    -4.666000000
C    -0.147000000    -3.054000000    -4.345000000
H     0.923000000    -3.191000000    -4.214000000
O     1.398000000    -0.786000000    -4.686000000
H    -0.096000000    -0.141000000    -3.316000000
C     0.675000000     2.498000000    -4.205000000
C     2.013000000     2.093000000    -4.729000000
H     2.606000000     3.010000000    -4.727000000
H     1.919000000     1.843000000    -5.788000000
C     2.730000000     1.033000000    -3.854000000
C     2.400000000    -0.299000000    -3.892000000
C     2.915000000    -1.236000000    -2.926000000
H     2.474000000    -2.230000000    -2.918000000
C     3.883000000    -0.751000000    -2.057000000
O     4.326000000    -1.687000000    -1.150000000
C     3.861000000    -1.556000000     0.257000000
H     2.993000000    -0.897000000     0.109000000
C     3.460000000    -2.937000000     0.803000000
C     3.586000000    -3.091000000     2.195000000
H     4.243000000    -2.409000000     2.729000000
C     2.839000000    -3.860000000    -0.006000000
H     2.755000000    -3.635000000    -1.066000000
C     2.199000000    -4.973000000     0.587000000
O     1.594000000    -5.899000000    -0.297000000
C     2.325000000    -5.190000000     1.956000000
H     1.888000000    -6.049000000     2.459000000
C     3.013000000    -4.302000000     2.713000000
O     3.148000000    -4.501000000     4.035000000
C     3.442000000    -3.502000000     4.958000000
C     2.369000000    -2.815000000     5.582000000
H     1.377000000    -3.078000000     5.224000000
C     4.766000000    -3.310000000     5.471000000
H     5.532000000    -3.930000000     5.013000000
C     4.987000000    -2.376000000     6.485000000
H     5.987000000    -2.249000000     6.892000000
C     3.911000000    -1.652000000     7.019000000
H     4.076000000    -0.875000000     7.761000000
C     2.603000000    -1.842000000     6.514000000
O     1.562000000    -1.126000000     7.069000000
C     0.726000000    -0.196000000     6.383000000
C    -0.695000000    -0.299000000     6.379000000
H    -1.173000000    -0.947000000     7.109000000
C    -1.497000000     0.502000000     5.567000000
O    -2.838000000     0.334000000     5.689000000
C    -3.729000000     1.344000000     5.316000000
C    -4.600000000     1.072000000     4.260000000
H    -4.604000000     0.092000000     3.791000000
C    -3.747000000     2.611000000     5.840000000
H    -3.055000000     2.903000000     6.625000000
C    -4.459000000     3.612000000     5.287000000
H    -4.462000000     4.602000000     5.737000000
C    -5.383000000     3.320000000     4.238000000
H    -5.926000000     4.147000000     3.786000000
C    -5.465000000     2.005000000     3.775000000
O    -6.240000000     1.720000000     2.667000000
C    -5.759000000     1.754000000     1.306000000
C    -6.371000000     0.796000000     0.461000000
H    -7.152000000     0.144000000     0.844000000
C    -5.900000000     0.652000000    -0.827000000
O    -6.589000000    -0.284000000    -1.621000000
C    -6.238000000    -0.567000000    -2.891000000
C    -5.267000000    -1.543000000    -3.167000000
H    -4.715000000    -2.053000000    -2.382000000
C    -7.044000000    -0.002000000    -3.857000000
H    -7.936000000     0.565000000    -3.603000000
C    -6.848000000    -0.471000000    -5.179000000
H    -7.418000000    -0.054000000    -6.005000000
C    -5.885000000    -1.400000000    -5.434000000
H    -5.737000000    -1.766000000    -6.447000000
C    -5.071000000    -1.908000000    -4.497000000
O    -4.193000000    -2.901000000    -4.887000000
C    -2.891000000    -2.934000000    -4.690000000
C    -2.184000000    -4.162000000    -4.802000000
H    -2.782000000    -4.998000000    -5.155000000
C    -0.821000000    -4.226000000    -4.615000000
O    -0.159000000    -5.421000000    -4.721000000
C     0.861000000    -5.791000000    -3.834000000
C     2.114000000    -6.104000000    -4.363000000
H     2.096000000    -6.096000000    -5.450000000
C     3.154000000    -6.513000000    -3.520000000
H     4.054000000    -6.981000000    -3.912000000
C     2.988000000    -6.375000000    -2.106000000
H     3.866000000    -6.554000000    -1.490000000
C     1.798000000    -5.944000000    -1.672000000
C     0.707000000    -5.749000000    -2.497000000
H    -0.257000000    -5.376000000    -2.158000000
C    -1.176000000    -1.814000000    -0.591000000
H    -0.981000000    -2.571000000    -1.346000000
C    -0.274000000    -0.792000000    -0.470000000
H     0.564000000    -0.796000000    -1.161000000
C    -0.467000000     0.184000000     0.545000000
H     0.329000000     0.940000000     0.746000000
C    -1.588000000     0.160000000     1.285000000
H    -1.646000000     0.891000000     2.087000000
C    -2.586000000    -0.761000000     1.085000000
H    -3.487000000    -0.631000000     1.679000000
C    -2.372000000    -1.792000000     0.169000000
C    -3.388000000    -2.905000000     0.017000000
O    -4.470000000    -2.836000000     0.590000000
O    -3.099000000    -3.862000000    -0.686000000
O    -5.057000000    -2.569000000     3.179000000
H    -4.199000000    -2.624000000     3.599000000
H    -4.863000000    -2.516000000     2.243000000
O    -3.319000000    -7.168000000    -3.349000000
H    -2.883000000    -7.461000000    -2.549000000
H    -3.676000000    -6.308000000    -3.126000000
O    -3.323000000    -5.071000000     4.295000000
H    -2.763000000    -4.332000000     4.057000000
H    -3.094000000    -5.756000000     3.667000000
O    -6.954000000    -3.452000000    -0.776000000
H    -7.555000000    -2.846000000    -0.343000000
H    -6.119000000    -3.323000000    -0.327000000
O    -0.515000000    -4.562000000     4.259000000
H    -0.823000000    -4.334000000     5.136000000
H    -0.529000000    -3.735000000     3.777000000
O    -7.787000000    -4.006000000    -3.253000000
H    -8.576000000    -4.448000000    -2.941000000
H    -7.338000000    -3.726000000    -2.456000000
O    -2.767000000    -6.494000000    -0.455000000
H    -2.747000000    -5.566000000    -0.689000000
H    -3.682000000    -6.666000000    -0.233000000
O    -0.689000000    -8.327000000    -0.312000000
H    -1.465000000    -7.779000000    -0.429000000
H    -0.526000000    -8.314000000     0.631000000
O    -6.781000000    -6.669000000    -1.604000000
H    -7.186000000    -6.115000000    -0.938000000
H    -6.120000000    -6.110000000    -2.013000000
O    -2.372000000    -2.178000000     3.773000000
H    -1.672000000    -2.001000000     3.144000000
H    -2.146000000    -1.649000000     4.538000000
O    -6.762000000    -4.329000000     4.379000000
H    -6.301000000    -4.003000000     5.152000000
H    -6.347000000    -3.877000000     3.644000000
O     0.260000000    -2.344000000     2.621000000
H     1.179000000    -2.462000000     2.383000000
H    -0.225000000    -2.823000000     1.949000000
O    -5.700000000    -5.266000000     1.374000000
H    -5.033000000    -4.823000000     0.849000000
H    -6.385000000    -4.608000000     1.495000000
O    -4.684000000    -4.951000000    -2.348000000
H    -4.062000000    -4.533000000    -1.753000000
H    -5.107000000    -4.223000000    -2.803000000
O    -0.655000000    -7.082000000     2.024000000
H    -1.560000000    -7.098000000     2.336000000
H    -0.362000000    -6.185000000     2.187000000
O    -8.791000000    -2.141000000     1.133000000
H    -8.209000000    -1.975000000     1.874000000
H    -9.636000000    -1.784000000     1.407000000
O    -5.006000000    -7.949000000     0.907000000
H    -5.537000000    -7.223000000     1.232000000
H    -5.356000000    -8.131000000     0.035000000
O    -7.680000000    -1.126000000     3.440000000
H    -6.731000000    -1.248000000     3.482000000
H    -7.981000000    -1.279000000     4.335000000
O    -0.787000000    -4.410000000     1.042000000
H    -1.678000000    -4.442000000     0.694000000
H    -0.363000000    -5.191000000     0.686000000
