215
-1457.34293
C    -1.666000000     0.489000000     4.292000000
H    -2.200000000     1.237000000     3.711000000
C    -0.289000000     0.650000000     4.418000000
C     0.460000000    -0.250000000     5.229000000
H     1.543000000    -0.201000000     5.311000000
C     0.379000000     1.735000000     3.659000000
O    -0.376000000     3.007000000     3.735000000
H     0.383000000     1.281000000     2.657000000
O     1.704000000     1.970000000     4.208000000
C     2.701000000     2.108000000     3.287000000
C     3.435000000     0.949000000     3.026000000
H     3.332000000     0.043000000     3.617000000
C     4.263000000     0.938000000     1.912000000
O     4.724000000    -0.323000000     1.547000000
C     4.305000000     2.026000000     1.054000000
C     5.201000000     1.893000000    -0.182000000
H     5.440000000     2.930000000    -0.427000000
C     4.422000000     1.324000000    -1.377000000
C     3.760000000     2.260000000    -2.227000000
H     3.820000000     3.315000000    -1.974000000
H     6.142000000     1.367000000    -0.008000000
C     3.540000000     3.172000000     1.293000000
H     3.552000000     4.052000000     0.656000000
C     2.707000000     3.230000000     2.407000000
C     1.804000000     4.430000000     2.776000000
H     2.386000000     5.309000000     2.491000000
H     1.681000000     4.442000000     3.861000000
C     0.515000000     4.444000000     2.015000000
C     0.328000000     4.981000000     0.715000000
H     1.196000000     5.426000000     0.234000000
C    -0.551000000     3.741000000     2.567000000
C    -1.764000000     3.676000000     1.899000000
H    -2.659000000     3.262000000     2.356000000
C    -1.969000000     4.327000000     0.653000000
O    -3.167000000     4.040000000     0.048000000
C    -3.205000000     2.949000000    -0.948000000
C    -4.579000000     2.125000000    -0.901000000
C    -4.969000000     1.298000000    -1.957000000
H    -4.386000000     1.381000000    -2.871000000
C    -5.228000000     2.020000000     0.313000000
H    -4.861000000     2.593000000     1.161000000
O    -3.034000000     3.569000000    -2.269000000
H    -2.375000000     2.266000000    -0.716000000
C    -0.895000000     4.979000000     0.041000000
C    -0.964000000     5.395000000    -1.397000000
H    -0.275000000     6.226000000    -1.564000000
H    -1.964000000     5.806000000    -1.550000000
C    -0.753000000     4.331000000    -2.418000000
C     0.558000000     4.078000000    -2.835000000
H     1.358000000     4.744000000    -2.523000000
C    -1.741000000     3.445000000    -2.847000000
C    -1.475000000     2.356000000    -3.672000000
H    -2.189000000     1.563000000    -3.881000000
C    -0.194000000     2.110000000    -4.097000000
O     0.073000000     0.931000000    -4.805000000
C     0.697000000    -0.132000000    -4.120000000
C    -0.009000000    -1.452000000    -4.379000000
C    -1.449000000    -1.554000000    -4.745000000
H    -2.110000000    -0.697000000    -4.841000000
C     0.628000000    -2.642000000    -4.170000000
H     1.647000000    -2.589000000    -3.796000000
O     2.141000000    -0.160000000    -4.409000000
H     0.476000000     0.010000000    -3.052000000
C     0.833000000     2.957000000    -3.665000000
C     2.260000000     2.788000000    -4.074000000
H     2.765000000     3.754000000    -4.015000000
H     2.220000000     2.463000000    -5.116000000
C     2.983000000     1.754000000    -3.270000000
C     2.966000000     0.405000000    -3.499000000
C     3.591000000    -0.485000000    -2.700000000
H     3.418000000    -1.551000000    -2.826000000
C     4.251000000    -0.046000000    -1.564000000
O     4.713000000    -0.993000000    -0.675000000
C     4.034000000    -1.078000000     0.566000000
H     3.007000000    -0.742000000     0.356000000
C     3.966000000    -2.565000000     0.923000000
C     4.134000000    -2.966000000     2.252000000
H     4.441000000    -2.211000000     2.971000000
C     3.598000000    -3.586000000     0.010000000
H     3.319000000    -3.313000000    -1.004000000
C     3.433000000    -4.877000000     0.487000000
O     2.936000000    -5.867000000    -0.430000000
C     3.599000000    -5.269000000     1.770000000
H     3.455000000    -6.295000000     2.098000000
C     3.883000000    -4.268000000     2.705000000
O     4.005000000    -4.461000000     4.040000000
C     3.608000000    -3.618000000     5.094000000
C     2.229000000    -3.267000000     5.210000000
H     1.504000000    -3.540000000     4.447000000
C     4.467000000    -3.419000000     6.154000000
H     5.490000000    -3.788000000     6.147000000
C     3.984000000    -2.665000000     7.318000000
H     4.582000000    -2.498000000     8.210000000
C     2.599000000    -2.358000000     7.418000000
H     2.313000000    -1.670000000     8.209000000
C     1.698000000    -2.690000000     6.405000000
O     0.399000000    -2.268000000     6.557000000
C    -0.224000000    -1.351000000     5.816000000
C    -1.613000000    -1.431000000     5.684000000
H    -2.087000000    -2.274000000     6.180000000
C    -2.284000000    -0.585000000     4.873000000
O    -3.698000000    -0.636000000     4.759000000
C    -4.507000000     0.419000000     4.321000000
C    -5.282000000     0.257000000     3.158000000
H    -5.081000000    -0.684000000     2.652000000
C    -4.777000000     1.535000000     5.059000000
H    -4.230000000     1.600000000     5.997000000
C    -5.648000000     2.546000000     4.620000000
H    -5.748000000     3.378000000     5.312000000
C    -6.371000000     2.367000000     3.448000000
H    -7.134000000     3.054000000     3.093000000
C    -6.235000000     1.168000000     2.730000000
O    -6.976000000     1.005000000     1.585000000
C    -6.242000000     1.051000000     0.419000000
C    -6.693000000     0.312000000    -0.707000000
H    -7.579000000    -0.314000000    -0.653000000
C    -6.021000000     0.381000000    -1.838000000
O    -6.505000000    -0.407000000    -2.887000000
C    -5.804000000    -0.519000000    -4.054000000
C    -4.904000000    -1.637000000    -4.228000000
H    -4.802000000    -2.255000000    -3.339000000
C    -6.019000000     0.292000000    -5.157000000
H    -6.639000000     1.184000000    -5.111000000
C    -5.411000000    -0.048000000    -6.335000000
H    -5.589000000     0.589000000    -7.198000000
C    -4.562000000    -1.135000000    -6.482000000
H    -4.176000000    -1.358000000    -7.473000000
C    -4.285000000    -1.975000000    -5.388000000
O    -3.329000000    -2.930000000    -5.430000000
C    -2.054000000    -2.803000000    -4.898000000
C    -1.236000000    -3.938000000    -4.860000000
H    -1.725000000    -4.898000000    -5.002000000
C     0.123000000    -3.831000000    -4.519000000
O     0.867000000    -5.034000000    -4.574000000
C     1.956000000    -5.264000000    -3.896000000
C     3.271000000    -5.225000000    -4.492000000
H     3.387000000    -5.030000000    -5.555000000
C     4.383000000    -5.544000000    -3.721000000
H     5.343000000    -5.646000000    -4.219000000
C     4.334000000    -5.786000000    -2.344000000
H     5.263000000    -5.926000000    -1.797000000
C     3.049000000    -5.704000000    -1.742000000
C     1.876000000    -5.514000000    -2.519000000
H     0.912000000    -5.500000000    -2.016000000
C    -0.202000000    -2.623000000    -0.304000000
H     0.118000000    -3.646000000    -0.482000000
C     0.459000000    -1.475000000    -0.833000000
H     1.222000000    -1.606000000    -1.596000000
C     0.045000000    -0.207000000    -0.416000000
H     0.457000000     0.679000000    -0.857000000
C    -0.916000000    -0.082000000     0.541000000
H    -1.263000000     0.925000000     0.758000000
C    -1.562000000    -1.209000000     1.052000000
H    -2.325000000    -1.091000000     1.817000000
C    -1.089000000    -2.432000000     0.650000000
C    -1.767000000    -3.694000000     1.325000000
O    -2.521000000    -3.581000000     2.316000000
O    -1.304000000    -4.830000000     1.034000000
O    -3.781000000    -6.397000000     2.150000000
H    -4.483000000    -6.206000000     1.527000000
H    -3.171000000    -5.666000000     2.054000000
O    -1.130000000    -7.457000000    -3.687000000
H    -1.368000000    -7.303000000    -2.773000000
H    -0.728000000    -6.636000000    -3.972000000
O     0.026000000    -9.290000000     3.104000000
H    -0.265000000    -8.391000000     2.956000000
H    -0.759000000    -9.821000000     2.970000000
O    -2.666000000   -10.041000000     1.612000000
H    -3.327000000   -10.455000000     1.057000000
H    -2.067000000    -9.619000000     0.996000000
O    -5.659000000    -3.371000000     2.074000000
H    -6.454000000    -3.080000000     2.522000000
H    -4.987000000    -3.370000000     2.756000000
O    -4.021000000    -3.522000000     4.361000000
H    -3.474000000    -3.497000000     3.576000000
H    -4.057000000    -2.612000000     4.657000000
O    -5.342000000    -2.955000000    -0.633000000
H    -5.406000000    -3.152000000     0.301000000
H    -4.897000000    -2.109000000    -0.669000000
O    -3.184000000    -8.540000000     3.872000000
H    -2.943000000    -7.728000000     3.426000000
H    -3.531000000    -9.101000000     3.178000000
O    -1.911000000    -6.210000000    -1.404000000
H    -1.630000000    -5.812000000    -0.580000000
H    -2.638000000    -5.662000000    -1.699000000
O    -5.614000000    -8.936000000     2.339000000
H    -6.004000000    -9.024000000     1.469000000
H    -4.982000000    -8.223000000     2.247000000
O    -0.921000000    -5.028000000     4.069000000
H    -0.285000000    -5.430000000     3.477000000
H    -1.495000000    -4.520000000     3.495000000
O    -4.044000000    -4.649000000    -2.287000000
H    -4.748000000    -4.892000000    -2.888000000
H    -4.477000000    -4.132000000    -1.608000000
O    -2.317000000    -4.943000000     6.494000000
H    -3.123000000    -4.455000000     6.327000000
H    -1.829000000    -4.889000000     5.672000000
O    -5.960000000    -8.343000000    -1.621000000
H    -5.180000000    -8.794000000    -1.944000000
H    -5.630000000    -7.514000000    -1.275000000
O     0.521000000    -6.660000000     1.664000000
H    -0.176000000    -6.081000000     1.357000000
H     1.160000000    -6.664000000     0.951000000
O    -5.407000000    -5.119000000     6.027000000
H    -4.946000000    -5.927000000     6.255000000
H    -4.954000000    -4.797000000     5.248000000
O    -5.345000000    -5.991000000    -0.071000000
H    -5.055000000    -5.442000000    -0.799000000
H    -6.297000000    -5.888000000    -0.058000000
O    -7.752000000    -4.554000000    -1.059000000
H    -7.060000000    -3.948000000    -0.795000000
H    -8.298000000    -4.047000000    -1.661000000
O    -1.432000000    -9.067000000    -0.693000000
H    -1.689000000    -8.152000000    -0.807000000
H    -0.502000000    -9.085000000    -0.919000000
