215
-1474.41056
C     4.215000000     1.183000000    -2.703000000
H     3.933000000     0.429000000    -3.432000000
C     4.318000000     0.840000000    -1.318000000
C     4.767000000     1.811000000    -0.426000000
H     4.786000000     1.689000000     0.654000000
C     3.974000000    -0.527000000    -0.831000000
O     4.324000000    -1.473000000    -1.834000000
H     2.885000000    -0.561000000    -0.681000000
O     4.707000000    -0.823000000     0.356000000
C     4.040000000    -1.504000000     1.371000000
C     3.527000000    -0.822000000     2.520000000
H     3.714000000     0.246000000     2.594000000
C     2.670000000    -1.440000000     3.423000000
O     2.168000000    -0.696000000     4.526000000
C     2.243000000    -2.802000000     3.235000000
C     1.311000000    -3.466000000     4.287000000
H     1.523000000    -4.532000000     4.395000000
C    -0.146000000    -3.212000000     4.015000000
C    -0.900000000    -4.051000000     3.227000000
H    -0.489000000    -5.041000000     3.047000000
H     1.650000000    -3.076000000     5.248000000
C     2.819000000    -3.493000000     2.170000000
H     2.593000000    -4.548000000     2.041000000
C     3.729000000    -2.859000000     1.294000000
C     4.232000000    -3.642000000     0.073000000
H     4.343000000    -4.699000000     0.326000000
H     5.185000000    -3.293000000    -0.330000000
C     3.275000000    -3.490000000    -1.166000000
C     2.160000000    -4.351000000    -1.311000000
H     1.916000000    -5.138000000    -0.602000000
C     3.434000000    -2.473000000    -2.123000000
C     2.558000000    -2.309000000    -3.133000000
H     2.601000000    -1.507000000    -3.865000000
C     1.487000000    -3.187000000    -3.346000000
O     0.549000000    -2.822000000    -4.255000000
C    -0.627000000    -2.111000000    -3.845000000
C    -0.897000000    -0.909000000    -4.712000000
C    -2.120000000    -0.203000000    -4.530000000
H    -2.988000000    -0.613000000    -4.019000000
C     0.126000000    -0.358000000    -5.446000000
H     1.053000000    -0.888000000    -5.649000000
O    -1.790000000    -2.965000000    -3.727000000
H    -0.420000000    -1.686000000    -2.852000000
C     1.287000000    -4.200000000    -2.426000000
C    -0.028000000    -5.032000000    -2.483000000
H     0.214000000    -5.972000000    -1.982000000
H    -0.283000000    -5.064000000    -3.544000000
C    -1.163000000    -4.403000000    -1.798000000
C    -1.472000000    -4.772000000    -0.496000000
H    -0.930000000    -5.577000000    -0.006000000
C    -1.994000000    -3.456000000    -2.436000000
C    -3.003000000    -2.838000000    -1.727000000
H    -3.690000000    -2.146000000    -2.206000000
C    -3.240000000    -3.208000000    -0.398000000
O    -4.225000000    -2.503000000     0.303000000
C    -3.668000000    -1.555000000     1.268000000
C    -4.319000000    -0.191000000     1.078000000
C    -5.131000000     0.040000000     0.013000000
H    -5.311000000    -0.661000000    -0.797000000
C    -3.969000000     0.852000000     1.903000000
H    -3.265000000     0.608000000     2.695000000
O    -3.829000000    -2.021000000     2.644000000
H    -2.591000000    -1.431000000     1.078000000
C    -2.507000000    -4.236000000     0.219000000
C    -2.871000000    -4.599000000     1.658000000
H    -2.679000000    -5.661000000     1.827000000
H    -3.928000000    -4.421000000     1.866000000
C    -2.120000000    -3.710000000     2.705000000
C    -2.673000000    -2.511000000     3.234000000
C    -2.005000000    -1.627000000     4.024000000
H    -2.495000000    -0.713000000     4.347000000
C    -0.695000000    -2.001000000     4.412000000
O    -0.062000000    -1.063000000     5.250000000
C     0.824000000    -0.231000000     4.470000000
H     0.506000000    -0.242000000     3.417000000
C     0.764000000     1.190000000     4.964000000
C     1.649000000     2.136000000     4.345000000
H     2.436000000     1.798000000     3.675000000
C    -0.294000000     1.609000000     5.743000000
H    -1.019000000     0.899000000     6.134000000
C    -0.467000000     2.944000000     5.978000000
O    -1.634000000     3.363000000     6.608000000
C     0.379000000     3.926000000     5.415000000
H     0.027000000     4.953000000     5.380000000
C     1.485000000     3.496000000     4.612000000
O     2.253000000     4.491000000     4.005000000
C     3.469000000     4.265000000     3.417000000
C     3.578000000     4.240000000     2.012000000
H     2.845000000     4.372000000     1.220000000
C     4.481000000     3.914000000     4.292000000
H     4.205000000     3.806000000     5.338000000
C     5.740000000     3.634000000     3.757000000
H     6.593000000     3.352000000     4.369000000
C     5.889000000     3.762000000     2.356000000
H     6.861000000     3.588000000     1.903000000
C     4.870000000     4.113000000     1.477000000
O     5.181000000     4.134000000     0.074000000
C     4.938000000     3.132000000    -0.867000000
C     5.129000000     3.402000000    -2.222000000
H     5.418000000     4.408000000    -2.513000000
C     4.720000000     2.397000000    -3.132000000
O     4.781000000     2.692000000    -4.450000000
C     4.139000000     2.042000000    -5.473000000
C     2.738000000     1.817000000    -5.533000000
H     2.091000000     2.101000000    -4.707000000
C     4.908000000     1.906000000    -6.651000000
H     5.955000000     2.177000000    -6.539000000
C     4.343000000     1.598000000    -7.869000000
H     4.897000000     1.517000000    -8.801000000
C     2.973000000     1.351000000    -7.925000000
H     2.494000000     1.281000000    -8.899000000
C     2.202000000     1.476000000    -6.748000000
O     0.814000000     1.473000000    -6.904000000
C    -0.044000000     0.927000000    -5.984000000
C    -1.175000000     1.669000000    -5.690000000
H    -1.382000000     2.684000000    -6.019000000
C    -2.191000000     1.092000000    -4.990000000
O    -3.356000000     1.730000000    -4.856000000
C    -4.607000000     1.319000000    -4.341000000
C    -4.914000000     1.490000000    -2.991000000
H    -4.141000000     1.756000000    -2.274000000
C    -5.629000000     0.986000000    -5.222000000
H    -5.369000000     1.004000000    -6.278000000
C    -6.931000000     0.799000000    -4.738000000
H    -7.712000000     0.732000000    -5.491000000
C    -7.185000000     0.957000000    -3.374000000
H    -8.174000000     0.679000000    -3.017000000
C    -6.218000000     1.400000000    -2.511000000
O    -6.563000000     1.609000000    -1.177000000
C    -5.737000000     1.322000000    -0.164000000
C    -5.395000000     2.364000000     0.724000000
H    -5.677000000     3.405000000     0.585000000
C    -4.518000000     2.112000000     1.766000000
O    -4.177000000     3.153000000     2.609000000
C    -4.061000000     2.950000000     3.936000000
C    -5.167000000     2.594000000     4.751000000
H    -6.106000000     2.364000000     4.253000000
C    -5.062000000     2.364000000     6.085000000
H    -5.922000000     2.157000000     6.716000000
C    -3.878000000     2.709000000     6.737000000
H    -3.879000000     2.664000000     7.823000000
C    -2.812000000     3.201000000     5.995000000
C    -2.887000000     3.287000000     4.571000000
H    -2.029000000     3.631000000     3.999000000
C    -1.625000000     1.965000000    -1.001000000
H    -2.303000000     2.317000000    -1.775000000
C    -1.184000000     0.650000000    -0.981000000
H    -1.706000000    -0.072000000    -1.603000000
C    -0.117000000     0.259000000    -0.181000000
H     0.117000000    -0.796000000    -0.025000000
C     0.383000000     1.148000000     0.741000000
H     1.241000000     0.861000000     1.343000000
C    -0.089000000     2.442000000     0.825000000
H     0.384000000     3.143000000     1.509000000
C    -1.144000000     2.899000000    -0.011000000
C    -1.618000000     4.326000000     0.035000000
O    -1.305000000     5.084000000     0.902000000
O    -2.248000000     4.874000000    -0.921000000
O    -3.714000000     7.547000000    -0.530000000
H    -3.540000000     7.467000000     0.408000000
H    -3.195000000     6.850000000    -0.930000000
O    -0.543000000     7.851000000     5.297000000
H    -0.309000000     7.175000000     4.661000000
H    -1.213000000     7.442000000     5.845000000
O    -0.741000000     9.846000000    -1.340000000
H    -0.813000000     9.051000000    -0.812000000
H     0.193000000     9.918000000    -1.538000000
O    -3.444000000     5.764000000    -5.386000000
H    -3.645000000     5.714000000    -4.452000000
H    -2.504000000     5.594000000    -5.439000000
O    -3.945000000     7.369000000     4.174000000
H    -3.981000000     6.692000000     4.850000000
H    -3.939000000     6.883000000     3.349000000
O    -1.285000000     7.140000000    -3.333000000
H    -1.033000000     7.124000000    -2.410000000
H    -1.123000000     8.042000000    -3.610000000
O    -1.545000000     4.113000000    -3.586000000
H    -1.278000000     4.720000000    -2.895000000
H    -2.395000000     3.781000000    -3.299000000
O     0.317000000     5.223000000    -5.389000000
H     0.978000000     5.381000000    -4.715000000
H    -0.378000000     4.747000000    -4.935000000
O    -0.576000000     7.351000000     0.047000000
H    -0.912000000     6.501000000     0.330000000
H     0.209000000     7.488000000     0.578000000
O    -0.276000000     6.127000000     3.086000000
H    -0.739000000     5.593000000     2.440000000
H     0.476000000     6.480000000     2.610000000
O     1.795000000     7.191000000     1.393000000
H     2.290000000     7.207000000     0.573000000
H     2.465000000     7.185000000     2.077000000
O     3.123000000     6.830000000    -1.063000000
H     2.691000000     6.425000000    -1.815000000
H     3.817000000     7.367000000    -1.446000000
O    -4.498000000     4.620000000    -2.218000000
H    -3.775000000     4.707000000    -1.597000000
H    -5.226000000     5.086000000    -1.807000000
O     2.630000000     5.266000000    -3.772000000
H     3.494000000     5.036000000    -4.112000000
H     2.497000000     4.672000000    -3.033000000
O    -5.075000000     8.642000000    -2.586000000
H    -4.511000000     8.493000000    -1.826000000
H    -5.965000000     8.583000000    -2.239000000
O    -3.751000000     6.041000000     1.821000000
H    -4.274000000     5.295000000     2.115000000
H    -2.989000000     5.646000000     1.397000000
O    -0.023000000    10.076000000     2.327000000
H     0.911000000    10.016000000     2.527000000
H    -0.295000000     9.170000000     2.181000000
O    -6.083000000     6.067000000    -0.500000000
H    -6.489000000     5.832000000     0.334000000
H    -5.356000000     6.641000000    -0.259000000
O     1.486000000     3.159000000    -2.034000000
H     1.318000000     2.483000000    -1.378000000
H     0.743000000     3.100000000    -2.635000000
