215
-1445.60188
C    -0.885000000     1.638000000     5.271000000
H    -1.252000000     2.634000000     5.038000000
C     0.372000000     1.257000000     4.795000000
C     0.798000000    -0.054000000     4.929000000
H     1.671000000    -0.438000000     4.409000000
C     1.115000000     2.127000000     3.731000000
O     0.762000000     3.498000000     3.765000000
H     0.955000000     1.652000000     2.752000000
O     2.453000000     2.008000000     3.966000000
C     3.253000000     1.858000000     2.905000000
C     3.666000000     0.549000000     2.568000000
H     3.406000000    -0.277000000     3.226000000
C     4.394000000     0.342000000     1.370000000
O     4.768000000    -1.020000000     1.093000000
C     4.552000000     1.431000000     0.455000000
C     5.283000000     1.178000000    -0.864000000
H     5.789000000     2.067000000    -1.245000000
C     4.366000000     0.705000000    -1.981000000
C     3.709000000     1.635000000    -2.801000000
H     3.865000000     2.700000000    -2.652000000
H     6.052000000     0.430000000    -0.662000000
C     4.065000000     2.721000000     0.796000000
H     4.315000000     3.504000000     0.085000000
C     3.441000000     2.934000000     1.986000000
C     2.872000000     4.348000000     2.271000000
H     3.358000000     5.055000000     1.595000000
H     2.968000000     4.566000000     3.337000000
C     1.499000000     4.566000000     1.735000000
C     1.269000000     4.905000000     0.420000000
H     2.026000000     5.252000000    -0.278000000
C     0.484000000     4.093000000     2.574000000
C    -0.829000000     4.018000000     2.106000000
H    -1.648000000     3.450000000     2.540000000
C    -1.109000000     4.475000000     0.814000000
O    -2.403000000     4.322000000     0.284000000
C    -2.726000000     3.132000000    -0.507000000
C    -3.958000000     2.359000000    -0.114000000
C    -4.677000000     1.643000000    -1.058000000
H    -4.352000000     1.573000000    -2.093000000
C    -4.492000000     2.352000000     1.216000000
H    -4.037000000     3.034000000     1.930000000
O    -2.752000000     3.538000000    -1.910000000
H    -1.896000000     2.423000000    -0.368000000
C    -0.075000000     4.899000000    -0.028000000
C    -0.448000000     5.283000000    -1.428000000
H     0.320000000     5.920000000    -1.872000000
H    -1.390000000     5.831000000    -1.487000000
C    -0.469000000     4.068000000    -2.392000000
C     0.682000000     3.813000000    -3.152000000
H     1.543000000     4.462000000    -3.014000000
C    -1.583000000     3.264000000    -2.561000000
C    -1.565000000     2.183000000    -3.496000000
H    -2.523000000     1.717000000    -3.708000000
C    -0.371000000     1.936000000    -4.216000000
O    -0.426000000     0.789000000    -4.999000000
C     0.275000000    -0.359000000    -4.368000000
C    -0.579000000    -1.592000000    -4.783000000
C    -1.959000000    -1.430000000    -4.798000000
H    -2.472000000    -0.481000000    -4.664000000
C     0.014000000    -2.780000000    -4.897000000
H     1.090000000    -2.938000000    -4.901000000
O     1.651000000    -0.570000000    -4.810000000
H     0.204000000    -0.404000000    -3.272000000
C     0.777000000     2.748000000    -4.018000000
C     2.101000000     2.282000000    -4.566000000
H     2.713000000     3.187000000    -4.581000000
H     1.917000000     1.942000000    -5.588000000
C     2.828000000     1.221000000    -3.821000000
C     2.653000000    -0.173000000    -4.045000000
C     3.333000000    -1.071000000    -3.196000000
H     3.005000000    -2.107000000    -3.191000000
C     4.188000000    -0.609000000    -2.181000000
O     4.599000000    -1.501000000    -1.189000000
C     3.917000000    -1.576000000     0.072000000
H     3.014000000    -0.949000000     0.052000000
C     3.593000000    -3.034000000     0.473000000
C     3.642000000    -3.470000000     1.804000000
H     3.906000000    -2.743000000     2.569000000
C     3.229000000    -3.920000000    -0.504000000
H     3.092000000    -3.518000000    -1.504000000
C     2.781000000    -5.199000000    -0.120000000
O     2.283000000    -6.088000000    -1.026000000
C     2.769000000    -5.617000000     1.191000000
H     2.418000000    -6.572000000     1.573000000
C     3.152000000    -4.762000000     2.198000000
O     3.100000000    -5.248000000     3.460000000
C     2.760000000    -4.434000000     4.565000000
C     1.754000000    -3.552000000     4.557000000
H     1.036000000    -3.539000000     3.740000000
C     3.708000000    -4.473000000     5.595000000
H     4.516000000    -5.188000000     5.461000000
C     3.532000000    -3.652000000     6.701000000
H     4.211000000    -3.809000000     7.535000000
C     2.387000000    -2.873000000     6.805000000
H     2.066000000    -2.464000000     7.759000000
C     1.523000000    -2.764000000     5.693000000
O     0.282000000    -2.220000000     5.848000000
C    -0.016000000    -0.928000000     5.698000000
C    -1.126000000    -0.461000000     6.275000000
H    -1.725000000    -1.145000000     6.870000000
C    -1.623000000     0.800000000     6.115000000
O    -2.841000000     1.171000000     6.582000000
C    -3.806000000     1.839000000     5.870000000
C    -4.483000000     1.274000000     4.780000000
H    -4.417000000     0.203000000     4.602000000
C    -4.075000000     3.190000000     6.178000000
H    -3.615000000     3.681000000     7.032000000
C    -4.905000000     3.968000000     5.379000000
H    -5.145000000     4.984000000     5.679000000
C    -5.477000000     3.440000000     4.251000000
H    -6.027000000     4.081000000     3.567000000
C    -5.286000000     2.063000000     3.902000000
O    -6.028000000     1.491000000     2.886000000
C    -5.564000000     1.557000000     1.594000000
C    -6.294000000     0.877000000     0.619000000
H    -7.182000000     0.333000000     0.929000000
C    -5.770000000     0.831000000    -0.647000000
O    -6.469000000     0.051000000    -1.608000000
C    -6.128000000    -0.196000000    -2.905000000
C    -5.173000000    -1.176000000    -3.162000000
H    -4.785000000    -1.836000000    -2.390000000
C    -6.801000000     0.416000000    -3.946000000
H    -7.462000000     1.245000000    -3.703000000
C    -6.556000000     0.048000000    -5.275000000
H    -6.986000000     0.664000000    -6.060000000
C    -5.608000000    -0.841000000    -5.517000000
H    -5.544000000    -1.002000000    -6.590000000
C    -4.870000000    -1.473000000    -4.528000000
O    -4.104000000    -2.573000000    -4.852000000
C    -2.705000000    -2.554000000    -4.984000000
C    -2.147000000    -3.827000000    -5.056000000
H    -2.751000000    -4.718000000    -5.208000000
C    -0.769000000    -3.952000000    -5.041000000
O    -0.123000000    -5.187000000    -5.116000000
C     1.131000000    -5.483000000    -4.466000000
C     2.337000000    -5.648000000    -5.164000000
H     2.372000000    -5.393000000    -6.220000000
C     3.480000000    -6.029000000    -4.467000000
H     4.461000000    -6.103000000    -4.929000000
C     3.448000000    -6.170000000    -3.097000000
H     4.368000000    -6.466000000    -2.601000000
C     2.280000000    -5.888000000    -2.397000000
C     1.079000000    -5.601000000    -3.078000000
H     0.162000000    -5.548000000    -2.497000000
C    -2.772000000    -1.843000000    -0.203000000
H    -3.292000000    -2.667000000    -0.684000000
C    -1.908000000    -1.109000000    -0.962000000
H    -1.833000000    -1.256000000    -2.037000000
C    -1.229000000    -0.041000000    -0.388000000
H    -0.607000000     0.554000000    -1.050000000
C    -1.172000000     0.108000000     1.005000000
H    -0.691000000     0.977000000     1.445000000
C    -1.968000000    -0.756000000     1.751000000
H    -1.880000000    -0.674000000     2.832000000
C    -2.840000000    -1.673000000     1.160000000
C    -3.619000000    -2.612000000     1.962000000
O    -4.019000000    -2.200000000     3.040000000
O    -3.957000000    -3.657000000     1.521000000
O    -3.494000000    -2.879000000     5.603000000
H    -3.560000000    -3.831000000     5.532000000
H    -3.635000000    -2.562000000     4.711000000
O    -8.814000000    -2.251000000    -0.338000000
H    -7.967000000    -2.661000000    -0.513000000
H    -9.147000000    -2.710000000     0.433000000
O    -7.880000000     0.157000000     5.030000000
H    -7.273000000     0.471000000     5.701000000
H    -7.347000000    -0.404000000     4.468000000
O    -5.555000000    -1.493000000     6.530000000
H    -5.454000000    -0.636000000     6.944000000
H    -4.665000000    -1.749000000     6.289000000
O    -5.674000000    -5.498000000    -2.145000000
H    -6.183000000    -5.552000000    -2.955000000
H    -6.149000000    -4.866000000    -1.606000000
O    -6.441000000    -1.764000000     3.576000000
H    -5.506000000    -1.960000000     3.513000000
H    -6.528000000    -0.890000000     3.197000000
O    -0.978000000    -5.301000000     5.768000000
H    -1.207000000    -4.750000000     6.516000000
H    -1.789000000    -5.763000000     5.554000000
O    -3.390000000    -5.339000000    -0.336000000
H    -4.105000000    -5.349000000    -0.973000000
H    -3.584000000    -4.591000000     0.229000000
O    -8.174000000    -3.615000000     4.541000000
H    -8.441000000    -4.225000000     3.853000000
H    -7.462000000    -3.109000000     4.150000000
O    -6.553000000    -6.653000000     0.943000000
H    -6.287000000    -7.517000000     0.628000000
H    -5.766000000    -6.294000000     1.351000000
O    -0.023000000    -2.964000000     1.425000000
H    -0.108000000    -3.781000000     0.934000000
H    -0.625000000    -2.360000000     0.989000000
O    -4.596000000    -5.939000000     2.658000000
H    -4.424000000    -5.709000000     3.571000000
H    -4.121000000    -5.281000000     2.151000000
O    -0.715000000    -5.207000000     0.140000000
H    -1.616000000    -5.317000000    -0.163000000
H    -0.715000000    -5.569000000     1.027000000
O    -1.866000000    -3.784000000     7.895000000
H    -2.388000000    -3.378000000     7.203000000
H    -1.706000000    -3.078000000     8.521000000
O    -0.606000000    -6.821000000     2.341000000
H    -1.336000000    -7.400000000     2.560000000
H     0.119000000    -7.133000000     2.882000000
O    -2.953000000    -7.708000000     0.775000000
H    -2.971000000    -6.753000000     0.720000000
H    -2.044000000    -7.942000000     0.585000000
O    -6.315000000    -3.455000000     0.014000000
H    -5.467000000    -3.524000000     0.453000000
H    -6.827000000    -4.182000000     0.366000000
O    -3.644000000    -8.591000000     3.491000000
H    -3.842000000    -7.685000000     3.252000000
H    -3.564000000    -9.047000000     2.654000000
O    -3.690000000    -5.726000000     5.360000000
H    -4.521000000    -5.443000000     5.742000000
H    -3.439000000    -6.493000000     5.875000000
