215
-1474.97339
C    -1.109000000     0.624000000     3.906000000
H    -1.683000000     1.376000000     3.372000000
C     0.201000000     0.939000000     4.256000000
C     0.933000000     0.200000000     5.148000000
H     1.950000000     0.509000000     5.378000000
C     0.893000000     2.008000000     3.409000000
O     0.106000000     3.276000000     3.470000000
H     0.825000000     1.630000000     2.378000000
O     2.281000000     2.144000000     3.715000000
C     3.210000000     2.077000000     2.644000000
C     3.920000000     0.935000000     2.455000000
H     3.904000000     0.121000000     3.175000000
C     4.743000000     0.746000000     1.291000000
O     5.118000000    -0.493000000     0.984000000
C     4.703000000     1.772000000     0.312000000
C     5.420000000     1.593000000    -1.038000000
H     5.775000000     2.577000000    -1.352000000
C     4.488000000     0.980000000    -2.091000000
C     3.902000000     1.878000000    -3.028000000
H     4.186000000     2.924000000    -2.947000000
H     6.344000000     1.031000000    -0.884000000
C     4.013000000     2.992000000     0.569000000
H     4.090000000     3.782000000    -0.173000000
C     3.232000000     3.145000000     1.715000000
C     2.426000000     4.366000000     1.974000000
H     2.984000000     5.176000000     1.500000000
H     2.457000000     4.773000000     2.987000000
C     1.013000000     4.363000000     1.381000000
C     0.760000000     4.895000000     0.134000000
H     1.581000000     5.166000000    -0.526000000
C    -0.031000000     3.981000000     2.250000000
C    -1.313000000     4.171000000     1.775000000
H    -2.067000000     3.667000000     2.375000000
C    -1.611000000     4.688000000     0.549000000
O    -2.862000000     4.478000000     0.036000000
C    -3.117000000     3.381000000    -0.877000000
C    -4.455000000     2.757000000    -0.597000000
C    -5.135000000     2.120000000    -1.614000000
H    -4.671000000     2.012000000    -2.592000000
C    -4.914000000     2.604000000     0.706000000
H    -4.402000000     3.155000000     1.491000000
O    -3.000000000     3.816000000    -2.242000000
H    -2.376000000     2.588000000    -0.696000000
C    -0.522000000     5.168000000    -0.259000000
C    -0.741000000     5.518000000    -1.719000000
H    -0.014000000     6.275000000    -2.020000000
H    -1.646000000     6.112000000    -1.865000000
C    -0.589000000     4.306000000    -2.609000000
C     0.577000000     3.984000000    -3.288000000
H     1.445000000     4.606000000    -3.082000000
C    -1.756000000     3.535000000    -2.836000000
C    -1.662000000     2.419000000    -3.634000000
H    -2.531000000     1.808000000    -3.861000000
C    -0.483000000     2.032000000    -4.157000000
O    -0.463000000     0.803000000    -4.759000000
C     0.176000000    -0.269000000    -4.033000000
C    -0.613000000    -1.563000000    -4.173000000
C    -1.927000000    -1.479000000    -3.666000000
H    -2.534000000    -0.616000000    -3.405000000
C     0.079000000    -2.770000000    -4.415000000
H     1.077000000    -2.782000000    -4.846000000
O     1.492000000    -0.439000000    -4.572000000
H     0.162000000    -0.034000000    -2.958000000
C     0.703000000     2.805000000    -3.970000000
C     2.078000000     2.480000000    -4.583000000
H     2.666000000     3.386000000    -4.745000000
H     1.951000000     2.102000000    -5.600000000
C     2.776000000     1.450000000    -3.756000000
C     2.538000000     0.064000000    -3.874000000
C     3.175000000    -0.802000000    -3.024000000
H     2.966000000    -1.868000000    -2.983000000
C     4.077000000    -0.343000000    -2.048000000
O     4.598000000    -1.271000000    -1.175000000
C     4.207000000    -1.315000000     0.192000000
H     3.201000000    -0.869000000     0.203000000
C     4.065000000    -2.795000000     0.654000000
C     4.305000000    -3.050000000     1.961000000
H     4.889000000    -2.366000000     2.572000000
C     3.312000000    -3.734000000    -0.062000000
H     3.139000000    -3.489000000    -1.107000000
C     2.895000000    -4.932000000     0.481000000
O     2.043000000    -5.776000000    -0.215000000
C     3.153000000    -5.158000000     1.802000000
H     2.748000000    -6.036000000     2.299000000
C     3.825000000    -4.287000000     2.529000000
O     3.905000000    -4.504000000     3.887000000
C     3.634000000    -3.557000000     4.881000000
C     2.323000000    -3.222000000     5.238000000
H     1.514000000    -3.650000000     4.651000000
C     4.767000000    -3.001000000     5.475000000
H     5.764000000    -3.357000000     5.230000000
C     4.593000000    -2.126000000     6.546000000
H     5.448000000    -1.630000000     6.999000000
C     3.284000000    -1.852000000     6.986000000
H     3.061000000    -1.096000000     7.735000000
C     2.202000000    -2.327000000     6.293000000
O     0.939000000    -1.809000000     6.589000000
C     0.272000000    -0.913000000     5.679000000
C    -1.035000000    -1.270000000     5.362000000
H    -1.529000000    -2.194000000     5.651000000
C    -1.744000000    -0.515000000     4.416000000
O    -3.049000000    -0.859000000     4.200000000
C    -4.060000000     0.061000000     4.362000000
C    -4.980000000     0.275000000     3.290000000
H    -4.852000000    -0.262000000     2.354000000
C    -4.155000000     0.787000000     5.554000000
H    -3.545000000     0.537000000     6.418000000
C    -5.190000000     1.701000000     5.738000000
H    -5.337000000     2.253000000     6.663000000
C    -6.058000000     1.997000000     4.644000000
H    -6.758000000     2.799000000     4.865000000
C    -5.880000000     1.324000000     3.448000000
O    -6.640000000     1.678000000     2.274000000
C    -6.092000000     1.885000000     1.013000000
C    -6.836000000     1.442000000    -0.058000000
H    -7.781000000     0.906000000    -0.027000000
C    -6.375000000     1.503000000    -1.350000000
O    -6.974000000     0.815000000    -2.359000000
C    -6.308000000    -0.055000000    -3.143000000
C    -5.299000000    -0.882000000    -2.678000000
H    -4.957000000    -0.811000000    -1.648000000
C    -6.563000000     0.054000000    -4.520000000
H    -7.248000000     0.793000000    -4.927000000
C    -5.982000000    -0.883000000    -5.428000000
H    -6.276000000    -0.757000000    -6.467000000
C    -5.069000000    -1.776000000    -4.909000000
H    -4.580000000    -2.426000000    -5.630000000
C    -4.735000000    -1.764000000    -3.563000000
O    -3.869000000    -2.682000000    -3.044000000
C    -2.555000000    -2.693000000    -3.510000000
C    -1.898000000    -3.936000000    -3.779000000
H    -2.424000000    -4.887000000    -3.783000000
C    -0.588000000    -3.971000000    -4.194000000
O     0.010000000    -5.204000000    -4.513000000
C     1.121000000    -5.631000000    -3.739000000
C     2.229000000    -6.174000000    -4.404000000
H     2.148000000    -6.250000000    -5.485000000
C     3.319000000    -6.597000000    -3.607000000
H     4.259000000    -6.939000000    -4.033000000
C     3.344000000    -6.419000000    -2.206000000
H     4.201000000    -6.760000000    -1.631000000
C     2.159000000    -5.997000000    -1.561000000
C     1.068000000    -5.585000000    -2.347000000
H     0.117000000    -5.259000000    -1.933000000
C    -0.204000000    -2.216000000    -0.656000000
H     0.218000000    -3.154000000    -1.006000000
C     0.570000000    -1.090000000    -0.623000000
H     1.631000000    -1.115000000    -0.859000000
C     0.039000000     0.142000000    -0.123000000
H     0.691000000     0.955000000     0.046000000
C    -1.256000000     0.223000000     0.316000000
H    -1.698000000     1.142000000     0.692000000
C    -2.048000000    -0.917000000     0.324000000
H    -3.097000000    -0.897000000     0.611000000
C    -1.534000000    -2.177000000    -0.194000000
C    -2.273000000    -3.450000000    -0.038000000
O    -3.495000000    -3.414000000     0.097000000
O    -1.756000000    -4.559000000    -0.294000000
O    -3.545000000    -5.701000000     1.764000000
H    -2.952000000    -6.439000000     1.622000000
H    -3.320000000    -5.077000000     1.074000000
O    -0.604000000    -7.917000000    -5.240000000
H    -0.133000000    -7.326000000    -4.652000000
H    -1.227000000    -7.354000000    -5.697000000
O    -0.261000000    -9.751000000     0.980000000
H    -1.114000000    -9.827000000     0.552000000
H    -0.163000000    -8.815000000     1.155000000
O    -3.183000000    -8.797000000     0.967000000
H    -3.817000000    -9.281000000     0.438000000
H    -2.911000000    -8.068000000     0.408000000
O    -4.819000000    -3.603000000     4.032000000
H    -4.212000000    -4.018000000     3.418000000
H    -4.475000000    -2.718000000     4.147000000
O    -5.709000000    -2.654000000     1.372000000
H    -5.929000000    -3.207000000     2.122000000
H    -4.859000000    -2.979000000     1.076000000
O    -4.758000000    -6.606000000    -3.733000000
H    -4.855000000    -6.004000000    -2.995000000
H    -4.678000000    -6.036000000    -4.498000000
O    -2.749000000    -7.009000000     4.570000000
H    -2.755000000    -7.957000000     4.433000000
H    -1.897000000    -6.725000000     4.239000000
O    -2.854000000    -6.782000000    -1.085000000
H    -2.264000000    -6.039000000    -0.953000000
H    -3.679000000    -6.386000000    -1.364000000
O    -5.426000000    -6.586000000     3.457000000
H    -5.887000000    -5.980000000     2.878000000
H    -4.498000000    -6.417000000     3.292000000
O     0.028000000    -2.795000000     2.628000000
H    -0.108000000    -2.159000000     3.330000000
H    -0.056000000    -2.285000000     1.823000000
O    -5.014000000    -4.963000000    -1.496000000
H    -5.903000000    -4.743000000    -1.216000000
H    -4.447000000    -4.461000000    -0.911000000
O    -0.541000000    -5.511000000     3.614000000
H    -0.655000000    -5.933000000     2.762000000
H    -0.324000000    -4.602000000     3.404000000
O    -7.369000000    -8.040000000     0.880000000
H    -6.780000000    -8.140000000     0.131000000
H    -7.275000000    -7.122000000     1.136000000
O    -0.557000000    -6.732000000     1.005000000
H    -1.062000000    -6.171000000     0.416000000
H     0.336000000    -6.698000000     0.661000000
O    -6.140000000    -8.615000000    -2.099000000
H    -5.450000000    -7.976000000    -2.280000000
H    -5.671000000    -9.401000000    -1.820000000
O    -7.278000000    -5.272000000     1.456000000
H    -7.654000000    -4.702000000     0.785000000
H    -7.866000000    -5.179000000     2.206000000
O    -7.264000000    -3.601000000    -0.697000000
H    -6.628000000    -3.061000000    -0.227000000
H    -7.673000000    -3.002000000    -1.321000000
O    -1.368000000    -9.089000000    -1.469000000
H    -2.018000000    -8.398000000    -1.593000000
H    -0.527000000    -8.632000000    -1.480000000
