215
-1424.12123
C    -2.270000000     1.150000000     4.757000000
H    -2.613000000     1.997000000     4.169000000
C    -0.949000000     0.967000000     4.954000000
C    -0.488000000    -0.096000000     5.738000000
H     0.587000000    -0.251000000     5.796000000
C     0.021000000     1.905000000     4.174000000
O    -0.427000000     3.263000000     4.079000000
H     0.048000000     1.526000000     3.141000000
O     1.382000000     1.862000000     4.620000000
C     2.415000000     1.813000000     3.666000000
C     3.026000000     0.577000000     3.463000000
H     2.826000000    -0.256000000     4.132000000
C     3.986000000     0.482000000     2.504000000
O     4.327000000    -0.834000000     2.145000000
C     4.392000000     1.517000000     1.746000000
C     5.401000000     1.334000000     0.544000000
H     5.851000000     2.319000000     0.401000000
C     4.709000000     0.877000000    -0.768000000
C     4.234000000     1.846000000    -1.708000000
H     4.535000000     2.885000000    -1.606000000
H     6.224000000     0.650000000     0.759000000
C     3.874000000     2.770000000     2.083000000
H     4.117000000     3.645000000     1.486000000
C     2.824000000     2.918000000     2.999000000
C     2.192000000     4.275000000     3.216000000
H     2.960000000     4.935000000     2.807000000
H     2.084000000     4.404000000     4.295000000
C     0.887000000     4.340000000     2.348000000
C     1.046000000     4.739000000     1.010000000
H     2.053000000     4.979000000     0.679000000
C    -0.358000000     3.859000000     2.844000000
C    -1.423000000     3.666000000     2.029000000
H    -2.395000000     3.395000000     2.432000000
C    -1.285000000     4.083000000     0.693000000
O    -2.354000000     3.838000000    -0.114000000
C    -2.306000000     2.841000000    -1.146000000
C    -3.619000000     2.074000000    -1.160000000
C    -3.866000000     1.130000000    -2.149000000
H    -3.097000000     1.050000000    -2.913000000
C    -4.533000000     2.180000000    -0.069000000
H    -4.423000000     2.988000000     0.650000000
O    -2.114000000     3.570000000    -2.394000000
H    -1.501000000     2.138000000    -0.888000000
C    -0.073000000     4.513000000     0.178000000
C     0.029000000     5.059000000    -1.290000000
H     0.872000000     5.750000000    -1.364000000
H    -0.886000000     5.617000000    -1.499000000
C     0.255000000     4.080000000    -2.424000000
C     1.539000000     3.786000000    -2.798000000
H     2.361000000     4.373000000    -2.398000000
C    -0.836000000     3.415000000    -2.977000000
C    -0.640000000     2.359000000    -3.878000000
H    -1.551000000     1.828000000    -4.143000000
C     0.690000000     2.062000000    -4.214000000
O     0.918000000     0.924000000    -4.998000000
C     1.202000000    -0.296000000    -4.349000000
C     0.572000000    -1.429000000    -5.107000000
C    -0.531000000    -1.233000000    -5.888000000
H    -0.972000000    -0.253000000    -6.052000000
C     1.029000000    -2.735000000    -4.796000000
H     1.930000000    -2.813000000    -4.192000000
O     2.662000000    -0.461000000    -4.216000000
H     0.802000000    -0.314000000    -3.325000000
C     1.753000000     2.759000000    -3.747000000
C     3.242000000     2.366000000    -4.044000000
H     3.834000000     3.275000000    -3.915000000
H     3.507000000     1.894000000    -4.993000000
C     3.569000000     1.383000000    -2.916000000
C     3.257000000     0.069000000    -3.099000000
C     3.754000000    -0.867000000    -2.177000000
H     3.561000000    -1.932000000    -2.276000000
C     4.398000000    -0.439000000    -1.028000000
O     4.645000000    -1.374000000    -0.050000000
C     3.675000000    -1.465000000     1.041000000
H     2.862000000    -0.773000000     0.777000000
C     3.241000000    -2.840000000     1.296000000
C     2.656000000    -3.164000000     2.538000000
H     2.626000000    -2.385000000     3.296000000
C     3.117000000    -3.836000000     0.268000000
H     3.366000000    -3.752000000    -0.787000000
C     2.615000000    -5.090000000     0.505000000
O     2.664000000    -6.058000000    -0.509000000
C     2.099000000    -5.381000000     1.729000000
H     1.577000000    -6.330000000     1.829000000
C     2.166000000    -4.513000000     2.766000000
O     1.551000000    -4.896000000     3.919000000
C     1.423000000    -4.043000000     4.995000000
C     0.209000000    -3.598000000     5.531000000
H    -0.708000000    -3.779000000     4.977000000
C     2.579000000    -3.561000000     5.627000000
H     3.576000000    -3.793000000     5.261000000
C     2.497000000    -2.801000000     6.799000000
H     3.381000000    -2.657000000     7.414000000
C     1.227000000    -2.503000000     7.307000000
H     1.189000000    -2.066000000     8.302000000
C     0.094000000    -2.795000000     6.570000000
O    -1.122000000    -2.192000000     6.896000000
C    -1.440000000    -0.943000000     6.281000000
C    -2.791000000    -0.764000000     6.091000000
H    -3.555000000    -1.393000000     6.540000000
C    -3.245000000     0.342000000     5.364000000
O    -4.614000000     0.630000000     5.381000000
C    -5.223000000     1.443000000     4.505000000
C    -5.337000000     0.970000000     3.176000000
H    -5.030000000    -0.006000000     2.808000000
C    -5.754000000     2.666000000     4.942000000
H    -5.609000000     3.072000000     5.940000000
C    -6.473000000     3.518000000     4.043000000
H    -6.741000000     4.516000000     4.379000000
C    -6.527000000     2.992000000     2.751000000
H    -7.163000000     3.502000000     2.031000000
C    -6.148000000     1.700000000     2.370000000
O    -6.474000000     1.296000000     1.078000000
C    -5.586000000     1.297000000     0.007000000
C    -5.773000000     0.316000000    -0.922000000
H    -6.627000000    -0.355000000    -0.879000000
C    -4.885000000     0.253000000    -2.060000000
O    -4.972000000    -0.763000000    -3.027000000
C    -4.686000000    -0.530000000    -4.327000000
C    -3.673000000    -1.272000000    -4.885000000
H    -3.095000000    -1.846000000    -4.164000000
C    -5.533000000     0.169000000    -5.142000000
H    -6.278000000     0.840000000    -4.724000000
C    -5.280000000     0.173000000    -6.505000000
H    -5.844000000     0.810000000    -7.182000000
C    -4.302000000    -0.601000000    -7.065000000
H    -4.198000000    -0.558000000    -8.147000000
C    -3.525000000    -1.408000000    -6.307000000
O    -2.412000000    -2.162000000    -6.889000000
C    -1.236000000    -2.342000000    -6.316000000
C    -0.955000000    -3.628000000    -5.860000000
H    -1.610000000    -4.470000000    -6.067000000
C     0.284000000    -3.821000000    -5.234000000
O     0.783000000    -5.051000000    -4.881000000
C     1.888000000    -5.279000000    -4.038000000
C     3.151000000    -5.196000000    -4.576000000
H     3.281000000    -5.144000000    -5.654000000
C     4.266000000    -5.462000000    -3.753000000
H     5.277000000    -5.408000000    -4.149000000
C     4.121000000    -5.723000000    -2.393000000
H     4.850000000    -6.044000000    -1.654000000
C     2.812000000    -5.751000000    -1.886000000
C     1.701000000    -5.585000000    -2.695000000
H     0.750000000    -5.441000000    -2.188000000
C    -0.161000000    -2.434000000     0.419000000
H     0.269000000    -3.352000000     0.027000000
C     0.301000000    -1.218000000    -0.110000000
H     1.122000000    -1.253000000    -0.821000000
C    -0.258000000    -0.001000000     0.237000000
H    -0.001000000     0.951000000    -0.207000000
C    -1.255000000    -0.045000000     1.229000000
H    -1.626000000     0.921000000     1.562000000
C    -1.613000000    -1.161000000     1.865000000
H    -2.399000000    -1.094000000     2.613000000
C    -1.130000000    -2.365000000     1.451000000
C    -1.603000000    -3.631000000     2.106000000
O    -2.373000000    -3.553000000     2.995000000
O    -1.471000000    -4.699000000     1.521000000
O    -0.511000000    -9.560000000     4.027000000
H     0.372000000    -9.805000000     3.750000000
H    -0.694000000    -8.748000000     3.554000000
O    -4.210000000    -6.183000000    -3.507000000
H    -3.730000000    -5.726000000    -2.817000000
H    -4.974000000    -6.552000000    -3.065000000
O    -3.507000000    -7.948000000    -0.035000000
H    -4.423000000    -7.908000000    -0.308000000
H    -3.545000000    -8.099000000     0.909000000
O    -7.797000000    -1.315000000     2.247000000
H    -7.106000000    -1.976000000     2.282000000
H    -7.330000000    -0.479000000     2.275000000
O    -6.417000000    -5.879000000     0.866000000
H    -6.449000000    -4.922000000     0.874000000
H    -5.603000000    -6.094000000     1.322000000
O    -5.283000000    -3.199000000    -0.547000000
H    -4.506000000    -3.671000000    -0.848000000
H    -5.486000000    -2.594000000    -1.261000000
O    -5.689000000    -3.031000000     2.201000000
H    -4.846000000    -3.399000000     2.466000000
H    -5.619000000    -2.931000000     1.252000000
O    -3.428000000    -9.761000000     3.968000000
H    -2.475000000    -9.782000000     4.053000000
H    -3.683000000    -8.915000000     4.336000000
O    -1.595000000    -7.273000000    -3.919000000
H    -2.476000000    -7.014000000    -4.187000000
H    -1.546000000    -7.034000000    -2.993000000
O    -3.959000000    -7.563000000     5.378000000
H    -4.584000000    -6.957000000     5.777000000
H    -3.250000000    -7.631000000     6.018000000
O    -4.310000000    -3.932000000     4.843000000
H    -4.145000000    -4.293000000     5.714000000
H    -3.468000000    -3.996000000     4.393000000
O    -3.076000000    -4.614000000    -0.719000000
H    -2.598000000    -4.356000000     0.070000000
H    -2.564000000    -5.336000000    -1.083000000
O    -6.322000000    -2.159000000     5.881000000
H    -6.289000000    -1.995000000     6.823000000
H    -5.615000000    -2.783000000     5.721000000
O    -0.894000000    -6.881000000     2.976000000
H    -1.018000000    -6.130000000     2.395000000
H    -0.829000000    -6.499000000     3.851000000
O    -1.388000000    -6.864000000    -1.324000000
H    -0.606000000    -7.040000000    -0.800000000
H    -2.111000000    -7.199000000    -0.795000000
O    -1.934000000    -1.808000000    -1.770000000
H    -2.398000000    -2.545000000    -1.372000000
H    -1.545000000    -1.342000000    -1.029000000
O    -4.099000000    -5.955000000     2.419000000
H    -3.279000000    -5.551000000     2.134000000
H    -4.051000000    -5.945000000     3.375000000
O    -5.000000000    -5.352000000     7.075000000
H    -4.776000000    -5.304000000     8.005000000
H    -5.864000000    -4.943000000     7.016000000
O    -0.020000000    -8.709000000     0.749000000
H    -0.495000000    -8.179000000     1.388000000
H    -0.493000000    -9.541000000     0.727000000
