215
-1438.42789
C     4.018000000     0.862000000    -2.810000000
H     3.911000000     0.003000000    -3.467000000
C     4.184000000     0.544000000    -1.430000000
C     4.513000000     1.509000000    -0.489000000
H     4.570000000     1.220000000     0.557000000
C     3.813000000    -0.941000000    -1.021000000
O     3.977000000    -1.901000000    -2.067000000
H     2.846000000    -0.774000000    -0.524000000
O     4.586000000    -1.409000000     0.137000000
C     3.893000000    -2.010000000     1.144000000
C     3.535000000    -1.212000000     2.243000000
H     3.985000000    -0.237000000     2.409000000
C     2.674000000    -1.659000000     3.202000000
O     2.499000000    -0.849000000     4.363000000
C     2.137000000    -2.987000000     3.078000000
C     1.177000000    -3.520000000     4.132000000
H     1.192000000    -4.612000000     4.147000000
C    -0.271000000    -3.047000000     3.916000000
C    -1.110000000    -3.882000000     3.157000000
H    -0.667000000    -4.770000000     2.713000000
H     1.429000000    -3.199000000     5.145000000
C     2.511000000    -3.791000000     1.992000000
H     1.955000000    -4.712000000     1.838000000
C     3.273000000    -3.234000000     0.957000000
C     3.619000000    -4.071000000    -0.248000000
H     3.481000000    -5.120000000     0.026000000
H     4.671000000    -4.046000000    -0.537000000
C     2.590000000    -3.843000000    -1.330000000
C     1.445000000    -4.635000000    -1.483000000
H     1.064000000    -5.295000000    -0.708000000
C     2.896000000    -2.761000000    -2.192000000
C     2.016000000    -2.521000000    -3.259000000
H     2.232000000    -1.676000000    -3.907000000
C     0.835000000    -3.208000000    -3.396000000
O    -0.051000000    -2.972000000    -4.354000000
C    -1.000000000    -2.080000000    -3.876000000
C    -1.318000000    -0.918000000    -4.783000000
C    -2.452000000    -0.169000000    -4.623000000
H    -3.175000000    -0.483000000    -3.875000000
C    -0.377000000    -0.484000000    -5.705000000
H     0.509000000    -1.103000000    -5.823000000
O    -2.190000000    -2.801000000    -3.654000000
H    -0.639000000    -1.664000000    -2.923000000
C     0.581000000    -4.297000000    -2.520000000
C    -0.773000000    -5.004000000    -2.625000000
H    -0.778000000    -6.054000000    -2.323000000
H    -1.126000000    -5.095000000    -3.655000000
C    -1.788000000    -4.283000000    -1.824000000
C    -1.967000000    -4.587000000    -0.521000000
H    -1.390000000    -5.351000000    -0.007000000
C    -2.473000000    -3.216000000    -2.402000000
C    -3.378000000    -2.479000000    -1.713000000
H    -3.992000000    -1.698000000    -2.154000000
C    -3.634000000    -2.858000000    -0.377000000
O    -4.458000000    -2.049000000     0.463000000
C    -3.919000000    -1.136000000     1.379000000
C    -4.441000000     0.335000000     1.240000000
C    -5.173000000     0.703000000     0.121000000
H    -5.427000000     0.016000000    -0.683000000
C    -4.091000000     1.289000000     2.205000000
H    -3.504000000     0.969000000     3.062000000
O    -3.979000000    -1.661000000     2.718000000
H    -2.841000000    -1.076000000     1.170000000
C    -2.981000000    -3.908000000     0.272000000
C    -3.272000000    -4.263000000     1.718000000
H    -3.020000000    -5.314000000     1.875000000
H    -4.355000000    -4.184000000     1.836000000
C    -2.415000000    -3.451000000     2.769000000
C    -2.842000000    -2.208000000     3.184000000
C    -1.947000000    -1.301000000     3.851000000
H    -2.211000000    -0.253000000     3.973000000
C    -0.691000000    -1.744000000     4.312000000
O     0.117000000    -0.922000000     4.977000000
C     1.187000000    -0.198000000     4.305000000
H     0.800000000    -0.084000000     3.282000000
C     1.406000000     1.220000000     4.730000000
C     2.618000000     1.884000000     4.464000000
H     3.479000000     1.401000000     4.009000000
C     0.308000000     1.989000000     5.199000000
H    -0.662000000     1.508000000     5.294000000
C     0.462000000     3.292000000     5.584000000
O    -0.594000000     3.964000000     6.134000000
C     1.695000000     3.848000000     5.412000000
H     1.806000000     4.860000000     5.791000000
C     2.774000000     3.262000000     4.839000000
O     3.936000000     3.977000000     4.722000000
C     4.830000000     3.748000000     3.708000000
C     4.371000000     3.795000000     2.410000000
H     3.322000000     3.914000000     2.152000000
C     6.210000000     3.645000000     3.938000000
H     6.517000000     3.769000000     4.974000000
C     7.156000000     3.510000000     2.913000000
H     8.232000000     3.592000000     3.044000000
C     6.625000000     3.465000000     1.645000000
H     7.260000000     3.253000000     0.788000000
C     5.289000000     3.623000000     1.378000000
O     4.846000000     3.855000000     0.101000000
C     4.566000000     2.871000000    -0.812000000
C     4.467000000     3.168000000    -2.172000000
H     4.697000000     4.170000000    -2.525000000
C     4.293000000     2.188000000    -3.124000000
O     4.308000000     2.624000000    -4.454000000
C     3.798000000     1.857000000    -5.478000000
C     2.407000000     1.901000000    -5.731000000
H     1.749000000     2.551000000    -5.160000000
C     4.611000000     1.017000000    -6.213000000
H     5.689000000     1.035000000    -6.073000000
C     4.022000000     0.120000000    -7.105000000
H     4.600000000    -0.648000000    -7.613000000
C     2.663000000     0.266000000    -7.452000000
H     2.272000000    -0.245000000    -8.327000000
C     1.917000000     1.185000000    -6.765000000
O     0.616000000     1.347000000    -7.085000000
C    -0.428000000     0.807000000    -6.323000000
C    -1.613000000     1.556000000    -6.113000000
H    -1.821000000     2.568000000    -6.453000000
C    -2.646000000     1.076000000    -5.287000000
O    -3.734000000     1.947000000    -5.108000000
C    -4.835000000     1.611000000    -4.387000000
C    -4.895000000     2.102000000    -3.117000000
H    -4.109000000     2.761000000    -2.756000000
C    -5.913000000     0.782000000    -4.880000000
H    -5.884000000     0.336000000    -5.870000000
C    -6.968000000     0.495000000    -4.014000000
H    -7.789000000    -0.069000000    -4.448000000
C    -7.032000000     1.039000000    -2.720000000
H    -7.904000000     0.884000000    -2.090000000
C    -5.987000000     1.847000000    -2.315000000
O    -6.228000000     2.441000000    -1.179000000
C    -5.624000000     1.997000000     0.014000000
C    -5.357000000     2.941000000     1.000000000
H    -5.638000000     3.977000000     0.835000000
C    -4.559000000     2.627000000     2.126000000
O    -4.240000000     3.695000000     3.015000000
C    -3.682000000     3.519000000     4.301000000
C    -4.569000000     3.451000000     5.381000000
H    -5.644000000     3.359000000     5.245000000
C    -4.123000000     3.380000000     6.671000000
H    -4.801000000     3.152000000     7.489000000
C    -2.756000000     3.533000000     6.966000000
H    -2.450000000     3.560000000     8.009000000
C    -1.867000000     3.738000000     5.898000000
C    -2.383000000     3.789000000     4.601000000
H    -1.733000000     4.080000000     3.781000000
C    -1.543000000     1.459000000    -0.435000000
H    -2.451000000     1.476000000    -1.032000000
C    -0.927000000     0.249000000    -0.352000000
H    -1.394000000    -0.579000000    -0.879000000
C     0.338000000     0.115000000     0.303000000
H     0.701000000    -0.816000000     0.389000000
C     0.865000000     1.234000000     0.894000000
H     1.738000000     1.097000000     1.528000000
C     0.243000000     2.434000000     0.872000000
H     0.704000000     3.239000000     1.438000000
C    -0.992000000     2.590000000     0.140000000
C    -1.784000000     3.907000000     0.005000000
O    -1.509000000     4.808000000     0.743000000
O    -2.639000000     4.146000000    -0.867000000
O    -6.564000000     6.429000000     1.237000000
H    -6.904000000     6.319000000     2.125000000
H    -6.911000000     7.275000000     0.952000000
O    -1.917000000     7.266000000     5.470000000
H    -1.483000000     6.560000000     4.990000000
H    -2.642000000     6.836000000     5.923000000
O    -2.300000000     8.645000000    -1.645000000
H    -2.375000000     7.981000000    -0.960000000
H    -2.555000000     9.462000000    -1.217000000
O    -4.189000000     8.400000000    -5.106000000
H    -3.866000000     7.716000000    -4.519000000
H    -4.977000000     8.732000000    -4.676000000
O    -6.274000000     5.938000000    -4.534000000
H    -6.048000000     5.091000000    -4.918000000
H    -6.038000000     5.853000000    -3.611000000
O    -3.048000000     8.444000000     2.782000000
H    -2.754000000     7.816000000     3.441000000
H    -3.439000000     7.905000000     2.094000000
O     1.124000000     9.328000000    -1.571000000
H     1.631000000     8.832000000    -2.213000000
H     0.963000000     8.707000000    -0.860000000
O    -2.639000000     6.794000000    -3.702000000
H    -2.192000000     7.268000000    -3.000000000
H    -1.992000000     6.740000000    -4.405000000
O    -1.728000000     3.474000000    -3.191000000
H    -2.102000000     3.673000000    -2.332000000
H    -1.923000000     4.247000000    -3.722000000
O     0.028000000     6.524000000    -0.837000000
H    -0.663000000     6.002000000    -0.432000000
H     0.326000000     5.995000000    -1.578000000
O    -0.933000000     6.692000000     2.963000000
H    -1.207000000     5.983000000     2.381000000
H    -1.383000000     7.467000000     2.625000000
O     2.154000000     6.875000000     1.630000000
H     2.355000000     6.844000000     0.694000000
H     1.209000000     6.732000000     1.677000000
O     3.136000000     6.791000000    -0.962000000
H     2.263000000     6.402000000    -1.025000000
H     3.492000000     6.723000000    -1.848000000
O     1.196000000     7.924000000     4.671000000
H     0.725000000     7.195000000     4.266000000
H     1.537000000     7.563000000     5.489000000
O    -4.621000000     5.322000000    -2.106000000
H    -4.199000000     4.893000000    -1.362000000
H    -3.902000000     5.742000000    -2.579000000
O     1.466000000     4.961000000    -2.706000000
H     2.118000000     5.169000000    -3.375000000
H     1.355000000     4.012000000    -2.766000000
O    -3.643000000     6.843000000     0.843000000
H    -4.542000000     6.546000000     0.987000000
H    -3.178000000     6.061000000     0.545000000
O    -7.306000000     5.588000000    -1.200000000
H    -7.105000000     5.904000000    -0.319000000
H    -6.460000000     5.317000000    -1.556000000
O     1.008000000     2.425000000    -2.605000000
H     1.210000000     2.298000000    -1.679000000
H     0.053000000     2.383000000    -2.650000000
