215
-1451.07775
C    -0.683000000     0.606000000     4.853000000
H    -1.294000000     1.323000000     4.310000000
C     0.726000000     0.785000000     4.823000000
C     1.502000000    -0.171000000     5.412000000
H     2.584000000    -0.165000000     5.302000000
C     1.289000000     1.752000000     3.806000000
O     0.617000000     2.996000000     3.891000000
H     1.117000000     1.225000000     2.856000000
O     2.749000000     1.841000000     4.003000000
C     3.544000000     1.860000000     2.859000000
C     4.159000000     0.659000000     2.483000000
H     4.044000000    -0.255000000     3.059000000
C     4.744000000     0.583000000     1.208000000
O     5.044000000    -0.626000000     0.700000000
C     4.787000000     1.762000000     0.390000000
C     5.264000000     1.710000000    -1.037000000
H     5.676000000     2.686000000    -1.301000000
C     4.271000000     1.230000000    -2.028000000
C     3.485000000     2.188000000    -2.675000000
H     3.680000000     3.253000000    -2.582000000
H     6.136000000     1.067000000    -1.177000000
C     4.259000000     2.965000000     0.850000000
H     4.365000000     3.873000000     0.263000000
C     3.602000000     2.979000000     2.025000000
C     2.827000000     4.274000000     2.337000000
H     3.287000000     5.191000000     1.962000000
H     2.740000000     4.475000000     3.407000000
C     1.375000000     4.231000000     1.837000000
C     1.020000000     4.802000000     0.582000000
H     1.722000000     5.049000000    -0.211000000
C     0.400000000     3.619000000     2.623000000
C    -0.900000000     3.520000000     2.165000000
H    -1.529000000     2.936000000     2.831000000
C    -1.309000000     4.139000000     0.938000000
O    -2.574000000     4.076000000     0.532000000
C    -2.914000000     3.071000000    -0.470000000
C    -4.100000000     2.267000000    -0.133000000
C    -4.851000000     1.499000000    -1.074000000
H    -4.458000000     1.575000000    -2.084000000
C    -4.529000000     2.141000000     1.194000000
H    -4.031000000     2.683000000     1.994000000
O    -3.054000000     3.735000000    -1.760000000
H    -2.032000000     2.442000000    -0.659000000
C    -0.335000000     4.805000000     0.220000000
C    -0.735000000     5.411000000    -1.130000000
H    -0.001000000     6.196000000    -1.326000000
H    -1.734000000     5.837000000    -1.024000000
C    -0.779000000     4.360000000    -2.261000000
C     0.401000000     4.109000000    -2.962000000
H     1.351000000     4.563000000    -2.693000000
C    -1.939000000     3.654000000    -2.557000000
C    -1.891000000     2.601000000    -3.500000000
H    -2.709000000     1.914000000    -3.703000000
C    -0.696000000     2.400000000    -4.212000000
O    -0.602000000     1.199000000    -4.887000000
C    -0.043000000     0.074000000    -4.218000000
C    -0.869000000    -1.120000000    -4.462000000
C    -2.219000000    -0.998000000    -4.843000000
H    -2.694000000    -0.088000000    -5.200000000
C    -0.404000000    -2.381000000    -4.096000000
H     0.585000000    -2.477000000    -3.655000000
O     1.267000000    -0.074000000    -4.641000000
H    -0.035000000     0.198000000    -3.125000000
C     0.410000000     3.154000000    -3.994000000
C     1.759000000     2.800000000    -4.493000000
H     2.395000000     3.685000000    -4.556000000
H     1.638000000     2.412000000    -5.507000000
C     2.445000000     1.753000000    -3.590000000
C     2.248000000     0.355000000    -3.833000000
C     3.042000000    -0.536000000    -3.112000000
H     2.923000000    -1.607000000    -3.251000000
C     4.023000000    -0.118000000    -2.260000000
O     4.577000000    -1.145000000    -1.450000000
C     4.062000000    -1.335000000    -0.192000000
H     3.133000000    -0.755000000    -0.085000000
C     3.886000000    -2.831000000     0.112000000
C     3.451000000    -3.107000000     1.428000000
H     3.447000000    -2.393000000     2.248000000
C     3.875000000    -3.812000000    -0.936000000
H     4.161000000    -3.635000000    -1.969000000
C     3.511000000    -5.120000000    -0.645000000
O     3.380000000    -6.030000000    -1.656000000
C     3.073000000    -5.405000000     0.662000000
H     2.782000000    -6.416000000     0.934000000
C     3.055000000    -4.448000000     1.691000000
O     2.593000000    -4.884000000     2.874000000
C     3.019000000    -4.460000000     4.186000000
C     2.192000000    -3.543000000     4.855000000
H     1.255000000    -3.195000000     4.427000000
C     4.039000000    -5.087000000     4.984000000
H     4.565000000    -5.934000000     4.551000000
C     4.231000000    -4.791000000     6.333000000
H     5.044000000    -5.302000000     6.843000000
C     3.437000000    -3.788000000     6.899000000
H     3.578000000    -3.417000000     7.911000000
C     2.404000000    -3.157000000     6.163000000
O     1.632000000    -2.175000000     6.774000000
C     0.898000000    -1.201000000     6.210000000
C    -0.503000000    -1.351000000     6.292000000
H    -0.953000000    -2.154000000     6.871000000
C    -1.299000000    -0.437000000     5.595000000
O    -2.680000000    -0.519000000     5.714000000
C    -3.552000000     0.495000000     5.343000000
C    -4.372000000     0.355000000     4.242000000
H    -4.278000000    -0.491000000     3.566000000
C    -3.769000000     1.525000000     6.291000000
H    -3.094000000     1.593000000     7.140000000
C    -4.741000000     2.512000000     6.064000000
H    -4.736000000     3.430000000     6.645000000
C    -5.535000000     2.373000000     4.890000000
H    -6.283000000     3.106000000     4.597000000
C    -5.301000000     1.374000000     3.969000000
O    -6.101000000     1.236000000     2.856000000
C    -5.561000000     1.299000000     1.585000000
C    -6.267000000     0.551000000     0.605000000
H    -7.089000000    -0.091000000     0.914000000
C    -5.857000000     0.634000000    -0.714000000
O    -6.687000000    -0.043000000    -1.586000000
C    -6.410000000    -0.029000000    -2.929000000
C    -5.526000000    -0.969000000    -3.404000000
H    -5.122000000    -1.739000000    -2.752000000
C    -6.966000000     0.948000000    -3.664000000
H    -7.713000000     1.642000000    -3.288000000
C    -6.701000000     0.961000000    -4.991000000
H    -7.224000000     1.661000000    -5.638000000
C    -5.781000000     0.001000000    -5.559000000
H    -5.653000000     0.040000000    -6.638000000
C    -5.125000000    -0.893000000    -4.724000000
O    -4.400000000    -1.925000000    -5.331000000
C    -3.080000000    -2.106000000    -4.856000000
C    -2.535000000    -3.335000000    -4.531000000
H    -3.168000000    -4.219000000    -4.556000000
C    -1.178000000    -3.458000000    -4.237000000
O    -0.631000000    -4.574000000    -3.821000000
C     0.673000000    -4.919000000    -3.974000000
C     1.263000000    -5.095000000    -5.244000000
H     0.699000000    -5.096000000    -6.173000000
C     2.652000000    -5.486000000    -5.270000000
H     3.180000000    -5.510000000    -6.219000000
C     3.309000000    -5.751000000    -4.064000000
H     4.335000000    -6.106000000    -4.018000000
C     2.665000000    -5.682000000    -2.853000000
C     1.366000000    -5.232000000    -2.844000000
H     0.878000000    -5.113000000    -1.880000000
C     0.105000000    -2.844000000     0.238000000
H     0.462000000    -3.797000000    -0.143000000
C     0.563000000    -1.648000000    -0.329000000
H     1.364000000    -1.748000000    -1.057000000
C     0.096000000    -0.454000000     0.212000000
H     0.432000000     0.438000000    -0.208000000
C    -0.793000000    -0.482000000     1.271000000
H    -1.135000000     0.460000000     1.692000000
C    -1.242000000    -1.659000000     1.850000000
H    -2.037000000    -1.573000000     2.585000000
C    -0.820000000    -2.844000000     1.297000000
C    -1.276000000    -4.147000000     1.771000000
O    -2.136000000    -4.182000000     2.655000000
O    -1.065000000    -5.151000000     1.153000000
O    -1.153000000    -7.357000000    -1.962000000
H    -0.505000000    -7.871000000    -2.443000000
H    -1.089000000    -6.478000000    -2.337000000
O    -7.042000000    -4.843000000     2.137000000
H    -6.129000000    -4.600000000     1.984000000
H    -7.071000000    -5.101000000     3.058000000
O    -0.665000000    -7.585000000     0.772000000
H    -0.864000000    -7.822000000    -0.133000000
H    -0.599000000    -6.631000000     0.761000000
O    -4.556000000    -4.032000000     2.531000000
H    -4.798000000    -3.716000000     3.401000000
H    -3.600000000    -4.091000000     2.554000000
O    -4.502000000    -8.845000000    -0.718000000
H    -4.921000000    -8.046000000    -0.397000000
H    -4.248000000    -8.638000000    -1.617000000
O    -4.469000000    -2.457000000    -0.121000000
H    -4.633000000    -2.562000000     0.816000000
H    -5.328000000    -2.262000000    -0.495000000
O    -4.625000000    -6.321000000     0.397000000
H    -4.220000000    -5.794000000    -0.292000000
H    -3.975000000    -6.339000000     1.099000000
O     0.919000000    -9.518000000     4.931000000
H     1.715000000    -9.847000000     4.514000000
H     0.664000000    -8.763000000     4.400000000
O    -4.638000000    -9.517000000     2.255000000
H    -4.239000000    -8.674000000     2.040000000
H    -4.219000000    -9.778000000     3.075000000
O    -1.287000000    -5.570000000     4.710000000
H    -1.768000000    -5.128000000     5.409000000
H    -1.610000000    -5.165000000     3.904000000
O    -3.994000000    -6.464000000    -2.754000000
H    -3.300000000    -5.916000000    -2.388000000
H    -4.666000000    -5.843000000    -3.035000000
O    -4.663000000    -7.656000000     4.731000000
H    -4.075000000    -7.303000000     4.063000000
H    -4.538000000    -8.604000000     4.684000000
O    -6.865000000    -7.809000000     1.639000000
H    -6.329000000    -7.032000000     1.476000000
H    -6.268000000    -8.427000000     2.060000000
O    -2.962000000    -7.232000000     2.658000000
H    -2.570000000    -6.546000000     3.198000000
H    -2.282000000    -7.453000000     2.021000000
O    -2.726000000    -4.322000000    -0.995000000
H    -2.317000000    -4.730000000    -0.231000000
H    -3.304000000    -3.652000000    -0.628000000
O     0.479000000    -7.364000000     3.363000000
H     0.137000000    -7.240000000     2.477000000
H     0.284000000    -6.541000000     3.812000000
O    -2.815000000    -4.599000000     7.056000000
H    -3.450000000    -3.884000000     7.024000000
H    -2.541000000    -4.636000000     7.972000000
O     0.861000000    -6.551000000     6.856000000
H     0.797000000    -5.621000000     7.075000000
H     0.282000000    -6.660000000     6.102000000
O    -2.487000000    -0.661000000    -1.602000000
H    -3.135000000    -1.169000000    -1.114000000
H    -1.745000000    -1.256000000    -1.706000000
