215
-1437.03991
C    -1.351000000     1.491000000     4.767000000
H    -1.860000000     2.338000000     4.314000000
C    -0.019000000     1.255000000     4.718000000
C     0.649000000     0.215000000     5.342000000
H     1.716000000     0.040000000     5.225000000
C     0.756000000     2.082000000     3.733000000
O     0.217000000     3.469000000     3.624000000
H     0.562000000     1.482000000     2.832000000
O     2.186000000     1.973000000     3.943000000
C     3.091000000     1.914000000     2.931000000
C     3.657000000     0.730000000     2.645000000
H     3.429000000    -0.143000000     3.252000000
C     4.352000000     0.495000000     1.436000000
O     4.781000000    -0.736000000     1.182000000
C     4.530000000     1.486000000     0.554000000
C     5.317000000     1.319000000    -0.711000000
H     5.940000000     2.121000000    -1.115000000
C     4.500000000     0.715000000    -1.835000000
C     3.957000000     1.663000000    -2.798000000
H     4.182000000     2.720000000    -2.676000000
H     6.157000000     0.696000000    -0.395000000
C     3.966000000     2.755000000     0.852000000
H     4.068000000     3.551000000     0.119000000
C     3.269000000     2.975000000     2.047000000
C     2.582000000     4.284000000     2.226000000
H     3.307000000     5.011000000     1.853000000
H     2.476000000     4.559000000     3.278000000
C     1.229000000     4.463000000     1.560000000
C     1.020000000     4.977000000     0.254000000
H     1.830000000     5.436000000    -0.306000000
C     0.112000000     3.920000000     2.306000000
C    -1.145000000     3.953000000     1.760000000
H    -2.015000000     3.550000000     2.272000000
C    -1.329000000     4.407000000     0.483000000
O    -2.468000000     4.233000000    -0.119000000
C    -2.731000000     2.990000000    -0.856000000
C    -4.066000000     2.289000000    -0.440000000
C    -4.667000000     1.425000000    -1.386000000
H    -4.125000000     1.343000000    -2.325000000
C    -4.688000000     2.441000000     0.746000000
H    -4.268000000     3.038000000     1.552000000
O    -2.610000000     3.203000000    -2.263000000
H    -1.903000000     2.299000000    -0.643000000
C    -0.242000000     4.786000000    -0.330000000
C    -0.408000000     5.155000000    -1.809000000
H     0.426000000     5.849000000    -1.941000000
H    -1.261000000     5.808000000    -2.003000000
C    -0.274000000     3.913000000    -2.738000000
C     0.900000000     3.626000000    -3.383000000
H     1.747000000     4.166000000    -2.967000000
C    -1.440000000     3.094000000    -2.962000000
C    -1.333000000     1.997000000    -3.848000000
H    -2.144000000     1.291000000    -4.007000000
C    -0.072000000     1.767000000    -4.404000000
O    -0.008000000     0.615000000    -5.167000000
C     0.507000000    -0.471000000    -4.337000000
C    -0.432000000    -1.724000000    -4.393000000
C    -1.785000000    -1.633000000    -4.779000000
H    -2.212000000    -0.692000000    -5.115000000
C     0.111000000    -2.917000000    -3.903000000
H     1.100000000    -2.979000000    -3.457000000
O     1.899000000    -0.747000000    -4.697000000
H     0.401000000    -0.029000000    -3.336000000
C     1.071000000     2.518000000    -4.162000000
C     2.379000000     2.162000000    -4.726000000
H     3.015000000     3.049000000    -4.766000000
H     2.338000000     1.747000000    -5.735000000
C     3.053000000     1.218000000    -3.795000000
C     2.848000000    -0.148000000    -3.941000000
C     3.457000000    -1.030000000    -3.055000000
H     3.427000000    -2.112000000    -3.153000000
C     4.261000000    -0.615000000    -2.014000000
O     4.733000000    -1.482000000    -1.060000000
C     4.077000000    -1.536000000     0.176000000
H     3.169000000    -0.928000000     0.051000000
C     3.741000000    -2.956000000     0.612000000
C     3.168000000    -3.118000000     1.908000000
H     2.929000000    -2.253000000     2.523000000
C     3.861000000    -4.059000000    -0.230000000
H     4.303000000    -3.908000000    -1.212000000
C     3.505000000    -5.375000000     0.224000000
O     3.474000000    -6.494000000    -0.605000000
C     3.017000000    -5.474000000     1.576000000
H     2.767000000    -6.484000000     1.891000000
C     2.853000000    -4.387000000     2.374000000
O     2.278000000    -4.568000000     3.594000000
C     2.446000000    -3.823000000     4.729000000
C     1.332000000    -3.189000000     5.298000000
H     0.372000000    -3.258000000     4.792000000
C     3.697000000    -3.666000000     5.316000000
H     4.575000000    -4.106000000     4.849000000
C     3.814000000    -2.936000000     6.486000000
H     4.736000000    -2.715000000     7.017000000
C     2.742000000    -2.247000000     7.046000000
H     2.896000000    -1.690000000     7.966000000
C     1.454000000    -2.415000000     6.444000000
O     0.465000000    -1.585000000     6.914000000
C    -0.096000000    -0.584000000     6.231000000
C    -1.441000000    -0.323000000     6.368000000
H    -2.006000000    -0.888000000     7.105000000
C    -2.030000000     0.707000000     5.622000000
O    -3.376000000     0.882000000     5.937000000
C    -4.238000000     1.729000000     5.351000000
C    -4.895000000     1.338000000     4.181000000
H    -4.533000000     0.367000000     3.851000000
C    -4.546000000     2.914000000     5.914000000
H    -4.069000000     3.247000000     6.832000000
C    -5.566000000     3.673000000     5.398000000
H    -5.758000000     4.665000000     5.798000000
C    -6.164000000     3.345000000     4.184000000
H    -6.856000000     4.073000000     3.767000000
C    -5.838000000     2.124000000     3.520000000
O    -6.410000000     1.713000000     2.295000000
C    -5.853000000     1.729000000     1.033000000
C    -6.435000000     0.824000000     0.102000000
H    -7.301000000     0.182000000     0.243000000
C    -5.867000000     0.730000000    -1.105000000
O    -6.423000000    -0.191000000    -2.044000000
C    -6.085000000    -0.491000000    -3.366000000
C    -5.210000000    -1.581000000    -3.713000000
H    -4.826000000    -2.302000000    -2.995000000
C    -6.424000000     0.414000000    -4.373000000
H    -7.007000000     1.276000000    -4.058000000
C    -5.937000000     0.252000000    -5.656000000
H    -6.266000000     0.916000000    -6.452000000
C    -5.097000000    -0.840000000    -5.969000000
H    -4.617000000    -0.904000000    -6.943000000
C    -4.724000000    -1.751000000    -5.006000000
O    -3.861000000    -2.768000000    -5.323000000
C    -2.520000000    -2.808000000    -4.911000000
C    -2.005000000    -4.021000000    -4.477000000
H    -2.651000000    -4.893000000    -4.418000000
C    -0.751000000    -4.044000000    -3.828000000
O    -0.279000000    -5.270000000    -3.371000000
C     1.070000000    -5.625000000    -3.249000000
C     1.898000000    -5.773000000    -4.380000000
H     1.449000000    -5.597000000    -5.354000000
C     3.262000000    -6.262000000    -4.282000000
H     3.910000000    -6.447000000    -5.135000000
C     3.751000000    -6.563000000    -3.000000000
H     4.780000000    -6.904000000    -2.934000000
C     2.952000000    -6.309000000    -1.872000000
C     1.636000000    -5.799000000    -2.050000000
H     0.978000000    -5.603000000    -1.208000000
C    -0.085000000    -2.643000000     0.715000000
H     0.144000000    -3.656000000     0.392000000
C     0.374000000    -1.534000000     0.034000000
H     1.117000000    -1.711000000    -0.740000000
C    -0.115000000    -0.290000000     0.270000000
H     0.250000000     0.570000000    -0.353000000
C    -0.983000000    -0.055000000     1.309000000
H    -1.367000000     0.937000000     1.536000000
C    -1.373000000    -1.109000000     2.126000000
H    -1.995000000    -0.836000000     2.974000000
C    -0.971000000    -2.446000000     1.842000000
C    -1.473000000    -3.580000000     2.752000000
O    -1.974000000    -3.167000000     3.802000000
O    -1.659000000    -4.737000000     2.332000000
O    -3.054000000    -6.406000000     4.149000000
H    -2.497000000    -6.734000000     4.856000000
H    -2.548000000    -5.695000000     3.757000000
O    -4.906000000    -7.496000000    -0.380000000
H    -5.857000000    -7.406000000    -0.314000000
H    -4.560000000    -6.774000000     0.144000000
O     0.422000000    -8.086000000     3.367000000
H     0.138000000    -7.926000000     4.267000000
H    -0.382000000    -8.314000000     2.899000000
O    -6.355000000    -1.398000000     5.009000000
H    -5.672000000    -0.929000000     5.490000000
H    -5.878000000    -2.024000000     4.465000000
O    -1.521000000    -9.307000000     2.141000000
H    -2.166000000    -9.002000000     1.503000000
H    -2.041000000    -9.565000000     2.903000000
O    -5.205000000    -2.993000000     1.180000000
H    -4.703000000    -2.225000000     0.904000000
H    -6.099000000    -2.811000000     0.892000000
O    -1.332000000    -6.128000000     7.663000000
H    -0.560000000    -6.015000000     8.218000000
H    -1.560000000    -5.240000000     7.387000000
O    -4.653000000    -2.972000000     3.846000000
H    -3.717000000    -3.092000000     4.004000000
H    -4.769000000    -3.191000000     2.921000000
O    -4.014000000    -9.004000000     3.444000000
H    -4.757000000    -9.364000000     3.927000000
H    -3.923000000    -8.110000000     3.776000000
O     2.136000000    -6.138000000     6.769000000
H     1.727000000    -7.003000000     6.797000000
H     3.012000000    -6.298000000     6.419000000
O    -5.677000000    -6.271000000     4.448000000
H    -5.661000000    -5.592000000     5.122000000
H    -4.832000000    -6.191000000     4.007000000
O    -1.769000000    -3.586000000     6.372000000
H    -0.988000000    -3.104000000     6.642000000
H    -1.843000000    -3.417000000     5.433000000
O    -2.398000000    -5.292000000    -1.241000000
H    -2.804000000    -5.398000000    -0.380000000
H    -2.490000000    -4.359000000    -1.436000000
O    -4.443000000    -4.177000000     6.459000000
H    -4.715000000    -3.686000000     5.683000000
H    -3.486000000    -4.147000000     6.438000000
O     0.080000000    -6.539000000     1.098000000
H    -0.294000000    -5.752000000     1.494000000
H     0.290000000    -7.105000000     1.841000000
O    -1.337000000    -7.864000000     5.518000000
H    -1.372000000    -7.312000000     6.300000000
H    -1.874000000    -8.625000000     5.737000000
O    -3.395000000    -1.219000000    -0.277000000
H    -2.462000000    -1.025000000    -0.182000000
H    -3.721000000    -0.544000000    -0.872000000
O    -3.885000000    -5.332000000     0.928000000
H    -4.463000000    -4.582000000     1.065000000
H    -3.102000000    -5.126000000     1.439000000
O    -0.976000000    -7.780000000    -1.072000000
H    -1.104000000    -7.057000000    -1.687000000
H    -0.863000000    -7.354000000    -0.222000000
