215
-1456.71784
C    -0.301000000     0.225000000     5.422000000
H    -0.493000000     1.294000000     5.395000000
C     0.850000000    -0.250000000     4.779000000
C     1.146000000    -1.612000000     4.873000000
H     2.114000000    -1.920000000     4.487000000
C     1.568000000     0.724000000     3.918000000
O     1.266000000     2.129000000     4.063000000
H     1.290000000     0.318000000     2.934000000
O     3.019000000     0.557000000     3.973000000
C     3.641000000     0.694000000     2.773000000
C     3.934000000    -0.415000000     2.088000000
H     3.845000000    -1.293000000     2.722000000
C     4.519000000    -0.444000000     0.833000000
O     4.579000000    -1.638000000     0.138000000
C     4.818000000     0.761000000     0.158000000
C     5.321000000     0.697000000    -1.284000000
H     6.005000000     1.531000000    -1.457000000
C     4.236000000     0.614000000    -2.340000000
C     3.788000000     1.810000000    -2.876000000
H     4.213000000     2.738000000    -2.503000000
H     6.002000000    -0.155000000    -1.345000000
C     4.592000000     1.942000000     0.878000000
H     4.899000000     2.843000000     0.355000000
C     3.967000000     1.931000000     2.128000000
C     3.548000000     3.219000000     2.780000000
H     4.095000000     4.109000000     2.463000000
H     3.546000000     3.191000000     3.871000000
C     2.092000000     3.508000000     2.282000000
C     1.857000000     4.437000000     1.258000000
H     2.644000000     4.882000000     0.655000000
C     1.030000000     2.914000000     3.007000000
C    -0.255000000     3.384000000     2.693000000
H    -1.083000000     3.106000000     3.340000000
C    -0.519000000     4.212000000     1.649000000
O    -1.784000000     4.443000000     1.263000000
C    -2.351000000     3.612000000     0.252000000
C    -3.673000000     3.043000000     0.650000000
C    -4.542000000     2.594000000    -0.321000000
H    -4.148000000     2.734000000    -1.324000000
C    -3.894000000     2.796000000     1.974000000
H    -3.267000000     3.289000000     2.713000000
O    -2.429000000     4.399000000    -0.977000000
H    -1.712000000     2.735000000     0.073000000
C     0.542000000     4.719000000     0.857000000
C     0.334000000     5.561000000    -0.375000000
H     1.175000000     6.199000000    -0.651000000
H    -0.494000000     6.241000000    -0.162000000
C    -0.038000000     4.705000000    -1.593000000
C     1.094000000     4.230000000    -2.318000000
H     2.106000000     4.582000000    -2.133000000
C    -1.302000000     4.140000000    -1.821000000
C    -1.491000000     3.373000000    -2.933000000
H    -2.428000000     2.832000000    -3.032000000
C    -0.461000000     3.035000000    -3.756000000
O    -0.746000000     2.046000000    -4.630000000
C    -0.292000000     0.707000000    -4.329000000
C    -1.300000000    -0.376000000    -4.754000000
C    -2.668000000    -0.192000000    -4.546000000
H    -2.908000000     0.824000000    -4.244000000
C    -0.846000000    -1.624000000    -5.160000000
H     0.210000000    -1.665000000    -5.414000000
O     1.015000000     0.524000000    -4.861000000
H    -0.146000000     0.560000000    -3.249000000
C     0.834000000     3.481000000    -3.461000000
C     2.026000000     2.995000000    -4.253000000
H     2.779000000     3.786000000    -4.223000000
H     1.804000000     2.777000000    -5.300000000
C     2.705000000     1.750000000    -3.747000000
C     2.131000000     0.511000000    -4.092000000
C     2.626000000    -0.658000000    -3.624000000
H     2.138000000    -1.585000000    -3.913000000
C     3.632000000    -0.605000000    -2.664000000
O     4.028000000    -1.753000000    -2.035000000
C     3.534000000    -1.953000000    -0.736000000
H     2.723000000    -1.234000000    -0.550000000
C     2.977000000    -3.303000000    -0.553000000
C     3.212000000    -3.978000000     0.632000000
H     3.823000000    -3.536000000     1.415000000
C     2.203000000    -3.969000000    -1.542000000
H     1.895000000    -3.386000000    -2.405000000
C     1.752000000    -5.289000000    -1.420000000
O     0.939000000    -5.905000000    -2.315000000
C     2.057000000    -5.956000000    -0.180000000
H     1.709000000    -6.950000000     0.088000000
C     2.767000000    -5.275000000     0.764000000
O     3.145000000    -5.987000000     1.928000000
C     2.990000000    -5.617000000     3.258000000
C     1.855000000    -4.983000000     3.729000000
H     1.016000000    -4.847000000     3.051000000
C     4.004000000    -6.074000000     4.122000000
H     4.837000000    -6.690000000     3.790000000
C     3.907000000    -5.683000000     5.451000000
H     4.681000000    -5.901000000     6.182000000
C     2.820000000    -4.879000000     5.821000000
H     2.713000000    -4.679000000     6.884000000
C     1.786000000    -4.461000000     4.979000000
O     0.580000000    -3.888000000     5.459000000
C     0.335000000    -2.503000000     5.550000000
C    -0.775000000    -2.020000000     6.176000000
H    -1.334000000    -2.732000000     6.778000000
C    -1.128000000    -0.716000000     6.192000000
O    -2.292000000    -0.269000000     6.739000000
C    -2.936000000     0.870000000     6.288000000
C    -3.755000000     0.815000000     5.164000000
H    -3.956000000    -0.118000000     4.644000000
C    -2.803000000     2.061000000     6.990000000
H    -2.139000000     2.242000000     7.832000000
C    -3.544000000     3.165000000     6.616000000
H    -3.319000000     4.145000000     7.029000000
C    -4.300000000     3.159000000     5.460000000
H    -4.953000000     3.999000000     5.242000000
C    -4.494000000     1.940000000     4.785000000
O    -5.323000000     1.812000000     3.698000000
C    -5.070000000     2.093000000     2.375000000
C    -5.951000000     1.604000000     1.428000000
H    -6.834000000     1.054000000     1.744000000
C    -5.633000000     1.821000000     0.068000000
O    -6.483000000     1.222000000    -0.847000000
C    -6.290000000     1.286000000    -2.235000000
C    -5.583000000     0.296000000    -2.909000000
H    -4.937000000    -0.429000000    -2.421000000
C    -7.013000000     2.190000000    -3.006000000
H    -7.566000000     2.974000000    -2.495000000
C    -7.062000000     2.110000000    -4.375000000
H    -7.734000000     2.767000000    -4.922000000
C    -6.331000000     1.125000000    -5.042000000
H    -6.387000000     1.085000000    -6.127000000
C    -5.595000000     0.192000000    -4.272000000
O    -4.997000000    -0.864000000    -4.936000000
C    -3.642000000    -1.138000000    -4.928000000
C    -3.198000000    -2.368000000    -5.257000000
H    -3.892000000    -3.130000000    -5.602000000
C    -1.832000000    -2.665000000    -5.379000000
O    -1.335000000    -3.827000000    -5.984000000
C    -0.172000000    -4.371000000    -5.411000000
C     1.036000000    -4.457000000    -6.192000000
H     1.001000000    -4.126000000    -7.227000000
C     2.195000000    -5.033000000    -5.648000000
H     3.154000000    -5.145000000    -6.148000000
C     2.193000000    -5.459000000    -4.319000000
H     3.107000000    -5.753000000    -3.809000000
C     0.965000000    -5.479000000    -3.631000000
C    -0.210000000    -4.924000000    -4.106000000
H    -1.091000000    -4.892000000    -3.470000000
C    -1.930000000    -1.706000000    -0.653000000
H    -2.323000000    -2.582000000    -1.162000000
C    -0.715000000    -1.105000000    -1.064000000
H    -0.241000000    -1.262000000    -2.029000000
C    -0.209000000    -0.001000000    -0.344000000
H     0.723000000     0.443000000    -0.678000000
C    -0.744000000     0.318000000     0.901000000
H    -0.240000000     1.014000000     1.566000000
C    -1.831000000    -0.429000000     1.418000000
H    -2.159000000    -0.152000000     2.416000000
C    -2.455000000    -1.327000000     0.595000000
C    -3.649000000    -2.053000000     1.189000000
O    -3.627000000    -2.282000000     2.390000000
O    -4.420000000    -2.639000000     0.424000000
O    -1.600000000    -4.541000000     3.256000000
H    -1.577000000    -3.786000000     2.668000000
H    -1.333000000    -5.279000000     2.708000000
O    -6.651000000    -2.968000000    -0.780000000
H    -7.307000000    -2.404000000    -0.369000000
H    -5.842000000    -2.781000000    -0.303000000
O    -3.395000000    -5.513000000    -3.545000000
H    -4.096000000    -5.045000000    -3.999000000
H    -3.392000000    -5.142000000    -2.662000000
O    -5.427000000    -4.617000000     2.027000000
H    -4.823000000    -5.126000000     2.567000000
H    -4.893000000    -3.902000000     1.679000000
O    -7.652000000     0.246000000     4.354000000
H    -7.037000000     0.977000000     4.419000000
H    -7.121000000    -0.487000000     4.042000000
O    -5.506000000    -3.906000000    -3.389000000
H    -5.200000000    -3.956000000    -2.484000000
H    -6.035000000    -3.109000000    -3.420000000
O    -8.054000000    -4.959000000     1.968000000
H    -8.001000000    -4.949000000     1.012000000
H    -7.142000000    -4.954000000     2.259000000
O    -5.265000000    -2.466000000     6.533000000
H    -4.722000000    -2.830000000     5.834000000
H    -5.246000000    -1.521000000     6.383000000
O    -4.656000000    -5.143000000    -0.886000000
H    -4.789000000    -4.354000000    -0.361000000
H    -4.079000000    -5.691000000    -0.354000000
O    -9.299000000    -2.505000000     1.112000000
H    -9.693000000    -1.968000000     1.799000000
H    -9.076000000    -3.327000000     1.549000000
O    -3.854000000    -5.385000000     6.725000000
H    -3.106000000    -5.951000000     6.536000000
H    -3.660000000    -4.569000000     6.266000000
O    -6.158000000    -6.457000000    -2.654000000
H    -5.815000000    -5.804000000    -2.044000000
H    -6.272000000    -5.980000000    -3.476000000
O    -6.082000000    -1.739000000     3.451000000
H    -6.176000000    -2.646000000     3.161000000
H    -5.276000000    -1.436000000     3.032000000
O    -6.706000000    -6.028000000     4.927000000
H    -6.484000000    -5.870000000     5.845000000
H    -6.004000000    -6.595000000     4.606000000
O    -3.554000000    -3.438000000     4.799000000
H    -2.859000000    -4.039000000     4.531000000
H    -3.663000000    -2.850000000     4.051000000
O    -5.818000000    -7.536000000     0.271000000
H    -5.855000000    -6.621000000    -0.008000000
H    -6.177000000    -7.530000000     1.158000000
O    -1.814000000    -6.382000000    -0.292000000
H    -1.170000000    -6.742000000     0.318000000
H    -1.357000000    -6.353000000    -1.132000000
O    -8.402000000    -5.392000000    -0.825000000
H    -9.100000000    -4.820000000    -1.142000000
H    -7.595000000    -4.976000000    -1.127000000
O    -1.005000000    -6.178000000     5.698000000
H    -0.231000000    -6.619000000     5.347000000
H    -0.915000000    -5.270000000     5.407000000
