215
-1447.69403
C    -1.517000000     0.955000000     5.002000000
H    -1.867000000     1.981000000     4.933000000
C    -0.398000000     0.419000000     4.332000000
C    -0.140000000    -0.943000000     4.444000000
H     0.713000000    -1.459000000     4.012000000
C     0.615000000     1.245000000     3.557000000
O     0.637000000     2.606000000     3.971000000
H     0.376000000     1.080000000     2.496000000
O     2.009000000     0.811000000     3.745000000
C     2.953000000     0.898000000     2.798000000
C     3.432000000    -0.309000000     2.311000000
H     3.075000000    -1.261000000     2.696000000
C     4.348000000    -0.369000000     1.243000000
O     4.771000000    -1.565000000     0.755000000
C     4.759000000     0.799000000     0.614000000
C     5.627000000     0.786000000    -0.636000000
H     6.027000000     1.797000000    -0.739000000
C     4.757000000     0.582000000    -1.922000000
C     4.242000000     1.737000000    -2.511000000
H     4.479000000     2.711000000    -2.090000000
H     6.488000000     0.115000000    -0.597000000
C     4.250000000     2.024000000     1.125000000
H     4.524000000     2.961000000     0.646000000
C     3.386000000     2.109000000     2.224000000
C     3.067000000     3.472000000     2.735000000
H     3.899000000     4.083000000     2.378000000
H     3.199000000     3.408000000     3.817000000
C     1.714000000     3.944000000     2.310000000
C     1.504000000     4.676000000     1.229000000
H     2.330000000     5.043000000     0.626000000
C     0.588000000     3.505000000     3.064000000
C    -0.660000000     4.084000000     2.803000000
H    -1.522000000     3.609000000     3.265000000
C    -0.847000000     4.708000000     1.625000000
O    -2.119000000     4.581000000     1.101000000
C    -2.272000000     3.413000000     0.191000000
C    -3.578000000     2.754000000     0.560000000
C    -4.093000000     1.845000000    -0.358000000
H    -3.503000000     1.671000000    -1.254000000
C    -4.373000000     3.087000000     1.690000000
H    -3.955000000     3.856000000     2.333000000
O    -2.287000000     3.887000000    -1.154000000
H    -1.448000000     2.685000000     0.202000000
C     0.256000000     5.067000000     0.863000000
C     0.082000000     5.579000000    -0.550000000
H     0.818000000     6.348000000    -0.796000000
H    -0.878000000     6.095000000    -0.495000000
C     0.043000000     4.459000000    -1.651000000
C     1.205000000     4.134000000    -2.316000000
H     2.065000000     4.658000000    -1.905000000
C    -1.123000000     3.737000000    -1.906000000
C    -1.084000000     2.720000000    -2.874000000
H    -2.009000000     2.197000000    -3.102000000
C     0.047000000     2.490000000    -3.631000000
O    -0.090000000     1.529000000    -4.571000000
C     0.539000000     0.263000000    -4.364000000
C    -0.313000000    -0.929000000    -4.894000000
C    -1.643000000    -0.839000000    -4.637000000
H    -2.154000000     0.084000000    -4.373000000
C     0.280000000    -2.058000000    -5.320000000
H     1.342000000    -2.169000000    -5.525000000
O     1.851000000     0.232000000    -4.855000000
H     0.516000000     0.083000000    -3.279000000
C     1.257000000     3.161000000    -3.302000000
C     2.575000000     2.909000000    -3.974000000
H     3.250000000     3.740000000    -3.761000000
H     2.408000000     2.948000000    -5.052000000
C     3.223000000     1.608000000    -3.403000000
C     2.891000000     0.396000000    -3.969000000
C     3.309000000    -0.749000000    -3.310000000
H     2.838000000    -1.694000000    -3.571000000
C     4.273000000    -0.665000000    -2.300000000
O     4.552000000    -1.839000000    -1.602000000
C     3.917000000    -2.010000000    -0.281000000
H     2.942000000    -1.501000000    -0.294000000
C     3.518000000    -3.454000000    -0.145000000
C     3.316000000    -4.005000000     1.121000000
H     3.481000000    -3.360000000     1.981000000
C     3.254000000    -4.294000000    -1.282000000
H     3.438000000    -3.842000000    -2.253000000
C     2.766000000    -5.572000000    -1.142000000
O     2.288000000    -6.242000000    -2.257000000
C     2.544000000    -6.166000000     0.127000000
H     2.129000000    -7.170000000     0.165000000
C     2.763000000    -5.300000000     1.279000000
O     2.552000000    -5.737000000     2.533000000
C     2.223000000    -4.889000000     3.592000000
C     0.935000000    -4.374000000     3.692000000
H     0.299000000    -4.537000000     2.825000000
C     3.122000000    -4.797000000     4.701000000
H     4.138000000    -5.165000000     4.591000000
C     2.642000000    -4.126000000     5.862000000
H     3.267000000    -4.056000000     6.748000000
C     1.350000000    -3.568000000     5.916000000
H     1.041000000    -3.194000000     6.889000000
C     0.479000000    -3.716000000     4.839000000
O    -0.840000000    -3.194000000     4.873000000
C    -1.010000000    -1.821000000     5.000000000
C    -2.165000000    -1.318000000     5.549000000
H    -2.941000000    -1.972000000     5.939000000
C    -2.448000000     0.062000000     5.573000000
O    -3.584000000     0.517000000     6.253000000
C    -4.341000000     1.579000000     5.955000000
C    -4.903000000     1.759000000     4.714000000
H    -4.628000000     1.019000000     3.967000000
C    -4.723000000     2.475000000     6.905000000
H    -4.306000000     2.443000000     7.908000000
C    -5.599000000     3.528000000     6.585000000
H    -5.857000000     4.197000000     7.402000000
C    -6.185000000     3.663000000     5.300000000
H    -6.837000000     4.511000000     5.106000000
C    -5.793000000     2.744000000     4.331000000
O    -6.299000000     2.736000000     3.046000000
C    -5.602000000     2.453000000     1.941000000
C    -6.032000000     1.520000000     0.964000000
H    -6.949000000     0.940000000     1.029000000
C    -5.337000000     1.276000000    -0.167000000
O    -5.826000000     0.349000000    -1.061000000
C    -5.514000000     0.334000000    -2.342000000
C    -4.877000000    -0.796000000    -2.848000000
H    -4.605000000    -1.591000000    -2.158000000
C    -5.887000000     1.398000000    -3.224000000
H    -6.319000000     2.282000000    -2.762000000
C    -5.584000000     1.375000000    -4.582000000
H    -5.706000000     2.218000000    -5.258000000
C    -4.973000000     0.219000000    -5.073000000
H    -4.994000000     0.154000000    -6.158000000
C    -4.619000000    -0.861000000    -4.262000000
O    -3.870000000    -1.882000000    -4.790000000
C    -2.495000000    -1.971000000    -4.908000000
C    -1.924000000    -3.177000000    -5.274000000
H    -2.542000000    -4.040000000    -5.509000000
C    -0.538000000    -3.190000000    -5.530000000
O    -0.019000000    -4.334000000    -6.047000000
C     1.161000000    -4.830000000    -5.443000000
C     2.232000000    -5.279000000    -6.232000000
H     2.183000000    -5.030000000    -7.289000000
C     3.310000000    -6.023000000    -5.710000000
H     4.142000000    -6.252000000    -6.371000000
C     3.395000000    -6.246000000    -4.363000000
H     4.285000000    -6.790000000    -4.054000000
C     2.369000000    -5.776000000    -3.579000000
C     1.258000000    -5.113000000    -4.110000000
H     0.423000000    -4.661000000    -3.582000000
C    -0.327000000    -3.473000000    -0.830000000
H    -0.163000000    -4.399000000    -1.375000000
C     0.196000000    -2.266000000    -1.306000000
H     0.706000000    -2.259000000    -2.266000000
C     0.053000000    -1.123000000    -0.536000000
H     0.433000000    -0.168000000    -0.893000000
C    -0.625000000    -1.119000000     0.632000000
H    -0.679000000    -0.220000000     1.240000000
C    -1.177000000    -2.302000000     1.160000000
H    -1.744000000    -2.287000000     2.087000000
C    -1.042000000    -3.485000000     0.424000000
C    -1.831000000    -4.677000000     0.695000000
O    -2.600000000    -4.621000000     1.627000000
O    -1.739000000    -5.751000000     0.067000000
O    -0.149000000    -9.347000000    -1.821000000
H    -0.983000000    -9.812000000    -1.886000000
H     0.426000000    -9.798000000    -2.440000000
O    -0.401000000    -8.101000000     0.349000000
H    -0.359000000    -8.491000000    -0.524000000
H    -0.951000000    -7.325000000     0.238000000
O    -4.395000000    -3.326000000     3.524000000
H    -5.072000000    -3.147000000     2.872000000
H    -3.758000000    -3.873000000     3.065000000
O    -6.117000000    -6.705000000    -3.036000000
H    -6.395000000    -5.999000000    -2.452000000
H    -5.852000000    -7.412000000    -2.448000000
O    -5.743000000    -1.936000000     1.367000000
H    -5.827000000    -0.996000000     1.208000000
H    -6.309000000    -2.341000000     0.709000000
O    -3.806000000    -7.794000000    -1.243000000
H    -3.227000000    -7.353000000    -0.620000000
H    -3.355000000    -8.612000000    -1.451000000
O    -5.052000000    -5.282000000     0.975000000
H    -4.204000000    -4.837000000     0.971000000
H    -4.843000000    -6.194000000     1.176000000
O    -2.149000000    -5.636000000     5.222000000
H    -3.072000000    -5.541000000     5.459000000
H    -1.831000000    -4.737000000     5.133000000
O    -1.501000000    -7.485000000    -4.967000000
H    -2.449000000    -7.364000000    -5.013000000
H    -1.262000000    -7.172000000    -4.095000000
O    -5.101000000    -5.417000000     5.304000000
H    -5.415000000    -4.923000000     6.061000000
H    -5.087000000    -4.779000000     4.590000000
O    -7.498000000    -5.761000000     2.021000000
H    -6.704000000    -5.315000000     1.726000000
H    -7.222000000    -6.665000000     2.172000000
O    -2.922000000    -6.996000000     2.918000000
H    -2.645000000    -6.587000000     3.738000000
H    -2.976000000    -6.271000000     2.295000000
O    -1.594000000    -6.155000000    -2.596000000
H    -1.532000000    -5.984000000    -1.656000000
H    -2.273000000    -5.555000000    -2.905000000
O    -5.716000000    -8.012000000     3.107000000
H    -4.802000000    -7.737000000     3.031000000
H    -5.784000000    -8.375000000     3.990000000
O    -1.206000000    -9.071000000     2.913000000
H    -1.796000000    -8.397000000     3.250000000
H    -0.904000000    -8.728000000     2.073000000
O    -0.059000000    -7.308000000     6.181000000
H    -0.276000000    -8.106000000     5.700000000
H    -0.739000000    -6.683000000     5.928000000
O    -6.627000000    -4.467000000    -1.211000000
H    -5.955000000    -4.623000000    -0.548000000
H    -7.297000000    -3.956000000    -0.758000000
O    -3.964000000    -4.815000000    -3.208000000
H    -4.708000000    -4.941000000    -2.620000000
H    -4.016000000    -3.895000000    -3.467000000
O     1.502000000   -10.125000000     1.987000000
H     0.712000000    -9.898000000     1.497000000
H     2.220000000    -9.934000000     1.383000000
