215
-1447.49248
C     0.238000000     0.803000000     5.339000000
H    -0.216000000     1.748000000     5.053000000
C     1.444000000     0.365000000     4.719000000
C     2.008000000    -0.877000000     4.974000000
H     2.919000000    -1.170000000     4.457000000
C     2.047000000     1.238000000     3.655000000
O     1.732000000     2.602000000     3.862000000
H     1.679000000     0.955000000     2.658000000
O     3.509000000     1.107000000     3.585000000
C     4.091000000     1.065000000     2.310000000
C     4.370000000    -0.156000000     1.761000000
H     4.208000000    -1.034000000     2.382000000
C     4.662000000    -0.311000000     0.391000000
O     4.583000000    -1.584000000    -0.073000000
C     4.749000000     0.811000000    -0.399000000
C     5.126000000     0.794000000    -1.788000000
H     5.645000000     1.711000000    -2.073000000
C     3.956000000     0.542000000    -2.755000000
C     3.350000000     1.663000000    -3.339000000
H     3.629000000     2.692000000    -3.125000000
H     5.958000000     0.112000000    -1.975000000
C     4.544000000     2.068000000     0.146000000
H     4.607000000     3.010000000    -0.394000000
C     4.101000000     2.185000000     1.481000000
C     3.841000000     3.586000000     2.008000000
H     4.320000000     4.367000000     1.414000000
H     4.169000000     3.638000000     3.048000000
C     2.364000000     3.816000000     1.846000000
C     1.999000000     4.563000000     0.671000000
H     2.708000000     4.915000000    -0.075000000
C     1.389000000     3.438000000     2.790000000
C     0.064000000     3.633000000     2.530000000
H    -0.713000000     3.172000000     3.134000000
C    -0.332000000     4.327000000     1.394000000
O    -1.707000000     4.576000000     1.236000000
C    -2.403000000     3.640000000     0.347000000
C    -3.670000000     2.964000000     0.876000000
C    -4.715000000     2.802000000     0.045000000
H    -4.723000000     3.038000000    -1.017000000
C    -3.776000000     2.553000000     2.173000000
H    -2.961000000     2.666000000     2.884000000
O    -2.518000000     4.258000000    -0.954000000
H    -1.861000000     2.706000000     0.135000000
C     0.621000000     4.762000000     0.488000000
C     0.254000000     5.466000000    -0.797000000
H     1.091000000     6.075000000    -1.145000000
H    -0.496000000     6.245000000    -0.643000000
C    -0.250000000     4.525000000    -1.845000000
C     0.736000000     4.059000000    -2.734000000
H     1.729000000     4.444000000    -2.513000000
C    -1.622000000     4.062000000    -1.969000000
C    -1.955000000     3.135000000    -2.945000000
H    -2.946000000     2.695000000    -3.006000000
C    -0.904000000     2.638000000    -3.832000000
O    -1.270000000     1.583000000    -4.664000000
C    -0.611000000     0.314000000    -4.380000000
C    -1.548000000    -0.833000000    -4.525000000
C    -2.804000000    -0.668000000    -3.919000000
H    -3.102000000     0.271000000    -3.460000000
C    -1.241000000    -2.121000000    -5.006000000
H    -0.242000000    -2.300000000    -5.397000000
O     0.625000000     0.078000000    -5.128000000
H    -0.274000000     0.386000000    -3.335000000
C     0.408000000     3.136000000    -3.713000000
C     1.492000000     2.658000000    -4.591000000
H     2.221000000     3.453000000    -4.761000000
H     1.067000000     2.414000000    -5.566000000
C     2.238000000     1.536000000    -4.107000000
C     1.762000000     0.262000000    -4.436000000
C     2.338000000    -0.857000000    -3.801000000
H     2.015000000    -1.889000000    -3.910000000
C     3.459000000    -0.736000000    -3.042000000
O     3.971000000    -1.859000000    -2.301000000
C     3.475000000    -1.878000000    -0.967000000
H     2.616000000    -1.203000000    -0.844000000
C     2.921000000    -3.251000000    -0.618000000
C     2.719000000    -3.586000000     0.721000000
H     3.118000000    -2.988000000     1.537000000
C     2.427000000    -4.046000000    -1.616000000
H     2.545000000    -3.738000000    -2.651000000
C     1.695000000    -5.250000000    -1.300000000
O     1.286000000    -6.067000000    -2.251000000
C     1.557000000    -5.605000000     0.021000000
H     0.908000000    -6.434000000     0.293000000
C     1.997000000    -4.802000000     1.029000000
O     1.984000000    -5.378000000     2.296000000
C     2.617000000    -4.945000000     3.426000000
C     2.018000000    -4.012000000     4.294000000
H     1.045000000    -3.587000000     4.064000000
C     3.877000000    -5.481000000     3.796000000
H     4.243000000    -6.205000000     3.073000000
C     4.406000000    -5.274000000     5.060000000
H     5.414000000    -5.583000000     5.327000000
C     3.744000000    -4.362000000     5.981000000
H     4.247000000    -4.052000000     6.894000000
C     2.591000000    -3.754000000     5.507000000
O     2.053000000    -2.857000000     6.424000000
C     1.442000000    -1.734000000     5.933000000
C     0.331000000    -1.333000000     6.628000000
H    -0.185000000    -1.974000000     7.338000000
C    -0.334000000    -0.123000000     6.264000000
O    -1.578000000     0.204000000     6.811000000
C    -2.390000000     1.272000000     6.375000000
C    -3.320000000     0.978000000     5.380000000
H    -3.456000000    -0.058000000     5.081000000
C    -2.247000000     2.542000000     6.889000000
H    -1.548000000     2.811000000     7.678000000
C    -2.950000000     3.591000000     6.283000000
H    -2.811000000     4.610000000     6.635000000
C    -3.952000000     3.286000000     5.410000000
H    -4.590000000     4.108000000     5.094000000
C    -4.198000000     2.026000000     5.018000000
O    -5.110000000     1.734000000     4.018000000
C    -4.926000000     1.936000000     2.687000000
C    -5.947000000     1.667000000     1.829000000
H    -6.821000000     1.076000000     2.089000000
C    -5.864000000     2.078000000     0.469000000
O    -6.816000000     1.883000000    -0.455000000
C    -6.610000000     1.222000000    -1.665000000
C    -5.872000000     0.090000000    -1.773000000
H    -5.329000000    -0.242000000    -0.892000000
C    -7.295000000     1.725000000    -2.741000000
H    -7.804000000     2.658000000    -2.515000000
C    -7.181000000     1.186000000    -4.037000000
H    -7.756000000     1.546000000    -4.887000000
C    -6.304000000     0.079000000    -4.131000000
H    -6.190000000    -0.406000000    -5.096000000
C    -5.681000000    -0.478000000    -3.032000000
O    -4.855000000    -1.660000000    -2.998000000
C    -3.619000000    -1.785000000    -3.730000000
C    -3.248000000    -3.018000000    -4.220000000
H    -3.884000000    -3.892000000    -4.101000000
C    -2.146000000    -3.172000000    -5.024000000
O    -1.860000000    -4.412000000    -5.474000000
C    -0.686000000    -4.989000000    -5.188000000
C     0.061000000    -5.561000000    -6.253000000
H    -0.262000000    -5.336000000    -7.266000000
C     1.250000000    -6.195000000    -5.975000000
H     1.901000000    -6.581000000    -6.755000000
C     1.639000000    -6.370000000    -4.632000000
H     2.585000000    -6.837000000    -4.372000000
C     0.943000000    -5.755000000    -3.602000000
C    -0.299000000    -5.177000000    -3.903000000
H    -0.922000000    -4.769000000    -3.110000000
C    -0.879000000    -2.392000000    -0.740000000
H    -1.113000000    -3.052000000    -1.571000000
C     0.051000000    -1.313000000    -0.898000000
H     0.479000000    -1.089000000    -1.872000000
C     0.301000000    -0.480000000     0.218000000
H     0.985000000     0.377000000     0.105000000
C    -0.394000000    -0.700000000     1.410000000
H    -0.235000000    -0.056000000     2.272000000
C    -1.324000000    -1.749000000     1.524000000
H    -1.955000000    -1.682000000     2.406000000
C    -1.582000000    -2.633000000     0.486000000
C    -2.556000000    -3.816000000     0.671000000
O    -3.105000000    -3.895000000     1.737000000
O    -2.854000000    -4.591000000    -0.226000000
O    -2.315000000    -7.807000000    -4.720000000
H    -1.431000000    -7.509000000    -4.933000000
H    -2.508000000    -7.399000000    -3.875000000
O    -2.470000000    -6.642000000     1.759000000
H    -2.655000000    -6.049000000     1.031000000
H    -2.574000000    -6.101000000     2.541000000
O    -4.484000000    -1.763000000     2.650000000
H    -5.205000000    -1.929000000     2.043000000
H    -3.909000000    -2.522000000     2.553000000
O    -6.894000000    -1.946000000     0.982000000
H    -7.703000000    -2.082000000     0.488000000
H    -6.233000000    -2.442000000     0.500000000
O    -5.315000000    -5.569000000     1.654000000
H    -4.482000000    -5.108000000     1.753000000
H    -5.244000000    -6.321000000     2.242000000
O    -5.392000000    -3.084000000    -0.917000000
H    -5.355000000    -2.651000000    -1.770000000
H    -4.579000000    -3.586000000    -0.867000000
O    -8.345000000    -5.758000000     2.112000000
H    -7.432000000    -5.607000000     1.866000000
H    -8.851000000    -5.391000000     1.387000000
O    -5.896000000    -1.832000000     4.796000000
H    -6.662000000    -1.673000000     4.245000000
H    -5.173000000    -1.935000000     4.176000000
O    -4.441000000    -7.472000000     3.347000000
H    -4.317000000    -7.950000000     4.167000000
H    -3.560000000    -7.393000000     2.981000000
O    -2.731000000    -5.017000000     4.034000000
H    -3.184000000    -4.826000000     4.855000000
H    -2.926000000    -4.267000000     3.472000000
O    -6.694000000    -5.556000000    -0.597000000
H    -6.543000000    -4.794000000    -1.157000000
H    -6.076000000    -5.448000000     0.126000000
O    -3.361000000    -6.559000000    -2.362000000
H    -3.209000000    -5.748000000    -1.877000000
H    -4.287000000    -6.524000000    -2.602000000
O     0.128000000    -7.890000000     2.098000000
H    -0.098000000    -7.721000000     3.013000000
H    -0.409000000    -7.273000000     1.601000000
O    -1.413000000    -8.102000000    -1.213000000
H    -1.747000000    -8.991000000    -1.091000000
H    -2.148000000    -7.620000000    -1.592000000
O    -4.850000000    -9.453000000    -2.073000000
H    -4.983000000    -8.507000000    -2.135000000
H    -5.160000000    -9.794000000    -2.912000000
O    -8.132000000    -1.379000000     3.351000000
H    -7.576000000    -1.434000000     2.574000000
H    -8.638000000    -2.191000000     3.343000000
O    -3.281000000    -9.290000000     1.182000000
H    -4.224000000    -9.158000000     1.081000000
H    -2.905000000    -8.414000000     1.091000000
O    -0.192000000    -6.795000000     4.902000000
H    -0.743000000    -6.054000000     4.649000000
H     0.024000000    -6.629000000     5.820000000
O    -5.791000000    -8.543000000     0.768000000
H    -6.478000000    -8.421000000     1.423000000
H    -5.840000000    -7.760000000     0.219000000
