215
-1469.81413
C    -1.111000000     1.277000000     5.211000000
H    -1.165000000     2.346000000     5.402000000
C    -0.054000000     0.666000000     4.525000000
C    -0.083000000    -0.684000000     4.200000000
H     0.725000000    -1.147000000     3.639000000
C     1.054000000     1.479000000     3.835000000
O     1.074000000     2.868000000     4.204000000
H     0.933000000     1.390000000     2.746000000
O     2.482000000     1.034000000     3.994000000
C     3.345000000     0.967000000     2.874000000
C     3.704000000    -0.336000000     2.445000000
H     3.341000000    -1.177000000     3.029000000
C     4.412000000    -0.556000000     1.253000000
O     4.608000000    -1.825000000     0.787000000
C     4.887000000     0.586000000     0.564000000
C     5.714000000     0.422000000    -0.783000000
H     6.220000000     1.375000000    -0.949000000
C     4.724000000     0.301000000    -1.952000000
C     4.223000000     1.465000000    -2.559000000
H     4.603000000     2.451000000    -2.303000000
H     6.464000000    -0.360000000    -0.644000000
C     4.538000000     1.856000000     0.982000000
H     5.025000000     2.677000000     0.462000000
C     3.820000000     2.041000000     2.132000000
C     3.529000000     3.460000000     2.598000000
H     4.229000000     4.135000000     2.102000000
H     3.721000000     3.529000000     3.670000000
C     2.112000000     3.942000000     2.283000000
C     1.823000000     4.647000000     1.112000000
H     2.698000000     4.910000000     0.521000000
C     1.013000000     3.680000000     3.094000000
C    -0.288000000     4.019000000     2.794000000
H    -1.046000000     3.786000000     3.539000000
C    -0.529000000     4.651000000     1.573000000
O    -1.787000000     4.650000000     1.113000000
C    -2.199000000     3.583000000     0.271000000
C    -3.565000000     3.081000000     0.556000000
C    -4.102000000     2.076000000    -0.279000000
H    -3.576000000     1.840000000    -1.201000000
C    -4.265000000     3.386000000     1.714000000
H    -3.893000000     4.155000000     2.386000000
O    -2.103000000     3.949000000    -1.145000000
H    -1.456000000     2.778000000     0.368000000
C     0.519000000     4.991000000     0.716000000
C     0.189000000     5.512000000    -0.656000000
H     1.016000000     6.192000000    -0.868000000
H    -0.769000000     6.034000000    -0.610000000
C     0.158000000     4.395000000    -1.691000000
C     1.306000000     3.953000000    -2.350000000
H     2.315000000     4.330000000    -2.207000000
C    -1.015000000     3.697000000    -1.957000000
C    -1.186000000     2.913000000    -3.045000000
H    -2.147000000     2.476000000    -3.302000000
C    -0.082000000     2.498000000    -3.767000000
O    -0.150000000     1.468000000    -4.663000000
C     0.465000000     0.159000000    -4.274000000
C    -0.467000000    -0.942000000    -4.726000000
C    -1.805000000    -0.937000000    -4.246000000
H    -2.115000000    -0.088000000    -3.643000000
C     0.011000000    -2.132000000    -5.296000000
H     1.059000000    -2.268000000    -5.548000000
O     1.718000000     0.087000000    -4.852000000
H     0.525000000     0.053000000    -3.181000000
C     1.134000000     2.978000000    -3.424000000
C     2.438000000     2.613000000    -4.112000000
H     3.120000000     3.461000000    -4.016000000
H     2.202000000     2.540000000    -5.175000000
C     3.150000000     1.376000000    -3.461000000
C     2.695000000     0.147000000    -3.935000000
C     3.265000000    -0.985000000    -3.428000000
H     2.864000000    -1.937000000    -3.766000000
C     4.244000000    -0.942000000    -2.393000000
O     4.480000000    -2.063000000    -1.577000000
C     3.737000000    -2.214000000    -0.332000000
H     2.850000000    -1.575000000    -0.452000000
C     3.200000000    -3.679000000    -0.181000000
C     2.808000000    -4.218000000     1.056000000
H     3.033000000    -3.605000000     1.925000000
C     3.019000000    -4.422000000    -1.350000000
H     3.258000000    -4.031000000    -2.335000000
C     2.435000000    -5.684000000    -1.248000000
O     2.322000000    -6.494000000    -2.315000000
C     2.057000000    -6.194000000    -0.039000000
H     1.703000000    -7.210000000     0.113000000
C     2.201000000    -5.481000000     1.105000000
O     1.864000000    -6.042000000     2.327000000
C     1.420000000    -5.329000000     3.437000000
C     0.327000000    -4.433000000     3.414000000
H    -0.184000000    -4.235000000     2.475000000
C     2.124000000    -5.559000000     4.650000000
H     2.900000000    -6.317000000     4.726000000
C     1.897000000    -4.722000000     5.748000000
H     2.555000000    -4.789000000     6.610000000
C     0.916000000    -3.738000000     5.694000000
H     0.763000000    -3.032000000     6.506000000
C     0.115000000    -3.655000000     4.562000000
O    -1.059000000    -2.869000000     4.605000000
C    -1.019000000    -1.503000000     4.851000000
C    -2.062000000    -0.936000000     5.615000000
H    -2.810000000    -1.554000000     6.106000000
C    -2.031000000     0.435000000     5.716000000
O    -3.121000000     0.937000000     6.447000000
C    -3.959000000     1.998000000     5.995000000
C    -4.599000000     1.923000000     4.791000000
H    -4.575000000     1.015000000     4.194000000
C    -4.101000000     3.170000000     6.776000000
H    -3.495000000     3.337000000     7.662000000
C    -4.951000000     4.211000000     6.340000000
H    -5.152000000     5.101000000     6.930000000
C    -5.573000000     4.084000000     5.113000000
H    -6.277000000     4.864000000     4.835000000
C    -5.397000000     3.002000000     4.342000000
O    -6.105000000     2.972000000     3.151000000
C    -5.493000000     2.759000000     1.982000000
C    -6.090000000     1.854000000     1.130000000
H    -7.043000000     1.372000000     1.334000000
C    -5.362000000     1.514000000    -0.028000000
O    -6.019000000     0.727000000    -0.866000000
C    -5.676000000     0.566000000    -2.197000000
C    -5.140000000    -0.617000000    -2.569000000
H    -4.930000000    -1.409000000    -1.853000000
C    -5.806000000     1.615000000    -3.062000000
H    -6.281000000     2.528000000    -2.711000000
C    -5.388000000     1.431000000    -4.374000000
H    -5.421000000     2.245000000    -5.094000000
C    -4.784000000     0.269000000    -4.761000000
H    -4.446000000     0.251000000    -5.794000000
C    -4.674000000    -0.769000000    -3.889000000
O    -3.989000000    -1.904000000    -4.183000000
C    -2.657000000    -2.027000000    -4.482000000
C    -2.158000000    -3.202000000    -5.015000000
H    -2.798000000    -4.065000000    -5.178000000
C    -0.809000000    -3.242000000    -5.426000000
O    -0.304000000    -4.485000000    -5.844000000
C     0.815000000    -5.060000000    -5.392000000
C     1.740000000    -5.481000000    -6.330000000
H     1.415000000    -5.339000000    -7.358000000
C     2.964000000    -6.093000000    -5.927000000
H     3.681000000    -6.323000000    -6.711000000
C     3.170000000    -6.286000000    -4.571000000
H     4.042000000    -6.815000000    -4.196000000
C     2.145000000    -6.058000000    -3.613000000
C     1.032000000    -5.353000000    -4.018000000
H     0.243000000    -5.083000000    -3.322000000
C    -0.889000000    -3.244000000    -0.829000000
H    -0.931000000    -4.131000000    -1.456000000
C    -0.130000000    -2.148000000    -1.227000000
H     0.583000000    -2.271000000    -2.039000000
C    -0.264000000    -0.921000000    -0.511000000
H     0.285000000    -0.037000000    -0.827000000
C    -1.220000000    -0.868000000     0.539000000
H    -1.331000000     0.076000000     1.066000000
C    -1.877000000    -2.004000000     0.993000000
H    -2.629000000    -1.949000000     1.776000000
C    -1.751000000    -3.215000000     0.292000000
C    -2.609000000    -4.362000000     0.658000000
O    -3.379000000    -4.346000000     1.596000000
O    -2.449000000    -5.387000000     0.025000000
O    -0.607000000    -8.354000000    -3.681000000
H    -0.858000000    -7.488000000    -3.363000000
H    -1.068000000    -8.446000000    -4.515000000
O    -0.821000000    -7.586000000     0.039000000
H    -0.330000000    -7.460000000    -0.773000000
H    -1.284000000    -6.758000000     0.170000000
O    -4.052000000    -2.776000000     3.603000000
H    -4.562000000    -2.305000000     2.944000000
H    -3.732000000    -3.555000000     3.147000000
O    -4.990000000    -7.062000000    -2.604000000
H    -5.101000000    -7.134000000    -1.656000000
H    -5.012000000    -6.120000000    -2.777000000
O    -5.771000000    -1.980000000     1.699000000
H    -5.827000000    -2.922000000     1.538000000
H    -5.905000000    -1.582000000     0.839000000
O    -4.852000000    -7.306000000     0.138000000
H    -4.199000000    -6.609000000     0.213000000
H    -4.338000000    -8.113000000     0.110000000
O    -5.850000000    -4.636000000     1.059000000
H    -4.922000000    -4.560000000     1.283000000
H    -5.893000000    -5.389000000     0.469000000
O    -2.980000000    -5.055000000     5.177000000
H    -3.371000000    -4.906000000     6.038000000
H    -3.116000000    -4.232000000     4.707000000
O    -5.433000000    -1.506000000     5.432000000
H    -5.966000000    -0.896000000     4.920000000
H    -5.000000000    -2.052000000     4.776000000
O    -5.660000000    -6.254000000     4.520000000
H    -4.809000000    -5.852000000     4.697000000
H    -5.454000000    -7.162000000     4.297000000
O    -2.237000000    -7.151000000     3.563000000
H    -2.360000000    -6.528000000     4.280000000
H    -2.641000000    -6.727000000     2.806000000
O    -8.599000000    -4.123000000     1.335000000
H    -7.660000000    -4.307000000     1.300000000
H    -8.960000000    -4.827000000     1.874000000
O    -2.059000000    -6.395000000    -2.245000000
H    -2.199000000    -5.981000000    -1.393000000
H    -2.934000000    -6.656000000    -2.532000000
O    -7.625000000    -6.343000000    -1.331000000
H    -8.309000000    -6.102000000    -0.706000000
H    -7.520000000    -7.288000000    -1.220000000
O    -3.909000000    -8.745000000     5.259000000
H    -3.194000000    -8.387000000     4.733000000
H    -4.238000000    -9.483000000     4.747000000
O    -1.287000000    -9.494000000     1.901000000
H    -1.584000000    -8.973000000     2.647000000
H    -1.057000000    -8.848000000     1.233000000
O    -7.105000000    -2.833000000    -1.322000000
H    -6.962000000    -3.573000000    -0.733000000
H    -8.046000000    -2.666000000    -1.273000000
O    -5.144000000    -4.344000000    -3.006000000
H    -5.543000000    -3.949000000    -2.230000000
H    -4.800000000    -3.602000000    -3.502000000
O     0.924000000    -8.531000000     4.584000000
H     0.671000000    -7.653000000     4.297000000
H     1.802000000    -8.657000000     4.225000000
