215
-1448.71536
C     3.983000000     0.867000000    -2.933000000
H     3.644000000     0.069000000    -3.589000000
C     4.096000000     0.571000000    -1.554000000
C     4.518000000     1.589000000    -0.727000000
H     4.591000000     1.425000000     0.345000000
C     3.739000000    -0.750000000    -0.965000000
O     3.919000000    -1.780000000    -1.997000000
H     2.682000000    -0.611000000    -0.690000000
O     4.603000000    -1.075000000     0.092000000
C     3.931000000    -1.643000000     1.160000000
C     3.627000000    -0.868000000     2.292000000
H     3.842000000     0.197000000     2.281000000
C     3.059000000    -1.358000000     3.415000000
O     2.666000000    -0.397000000     4.310000000
C     2.626000000    -2.662000000     3.369000000
C     1.632000000    -3.141000000     4.408000000
H     1.676000000    -4.227000000     4.511000000
C     0.212000000    -2.729000000     4.012000000
C    -0.580000000    -3.631000000     3.373000000
H    -0.133000000    -4.604000000     3.184000000
H     1.915000000    -2.822000000     5.413000000
C     2.878000000    -3.490000000     2.222000000
H     2.474000000    -4.499000000     2.241000000
C     3.564000000    -3.001000000     1.127000000
C     3.849000000    -3.966000000    -0.020000000
H     3.889000000    -5.047000000     0.123000000
H     4.862000000    -3.830000000    -0.405000000
C     2.851000000    -3.727000000    -1.163000000
C     1.699000000    -4.479000000    -1.169000000
H     1.588000000    -5.245000000    -0.406000000
C     2.939000000    -2.700000000    -2.138000000
C     2.078000000    -2.539000000    -3.193000000
H     2.200000000    -1.768000000    -3.949000000
C     0.926000000    -3.331000000    -3.160000000
O    -0.059000000    -2.962000000    -4.069000000
C    -1.095000000    -2.132000000    -3.537000000
C    -1.449000000    -0.974000000    -4.426000000
C    -2.704000000    -0.413000000    -4.321000000
H    -3.424000000    -0.737000000    -3.574000000
C    -0.480000000    -0.419000000    -5.300000000
H     0.459000000    -0.958000000    -5.390000000
O    -2.259000000    -2.985000000    -3.267000000
H    -0.845000000    -1.680000000    -2.566000000
C     0.671000000    -4.263000000    -2.149000000
C    -0.588000000    -5.099000000    -2.183000000
H    -0.354000000    -6.086000000    -1.778000000
H    -0.924000000    -5.060000000    -3.221000000
C    -1.680000000    -4.370000000    -1.427000000
C    -1.832000000    -4.653000000    -0.084000000
H    -1.184000000    -5.398000000     0.371000000
C    -2.437000000    -3.334000000    -1.980000000
C    -3.382000000    -2.664000000    -1.249000000
H    -3.957000000    -1.822000000    -1.627000000
C    -3.484000000    -2.995000000     0.137000000
O    -4.351000000    -2.249000000     0.919000000
C    -3.848000000    -1.126000000     1.673000000
C    -4.599000000     0.154000000     1.444000000
C    -5.556000000     0.285000000     0.405000000
H    -5.759000000    -0.609000000    -0.179000000
C    -4.264000000     1.271000000     2.200000000
H    -3.596000000     1.182000000     3.053000000
O    -3.619000000    -1.417000000     3.084000000
H    -2.826000000    -0.944000000     1.311000000
C    -2.691000000    -3.976000000     0.723000000
C    -2.787000000    -4.231000000     2.200000000
H    -2.584000000    -5.284000000     2.406000000
H    -3.849000000    -4.048000000     2.382000000
C    -1.881000000    -3.258000000     3.000000000
C    -2.390000000    -2.028000000     3.433000000
C    -1.606000000    -1.098000000     4.169000000
H    -1.997000000    -0.130000000     4.470000000
C    -0.264000000    -1.428000000     4.292000000
O     0.461000000    -0.420000000     4.883000000
C     1.393000000     0.280000000     4.067000000
H     1.065000000     0.087000000     3.035000000
C     1.418000000     1.804000000     4.379000000
C     2.613000000     2.549000000     4.165000000
H     3.453000000     2.005000000     3.739000000
C     0.301000000     2.505000000     4.826000000
H    -0.642000000     1.974000000     4.932000000
C     0.370000000     3.865000000     5.100000000
O    -0.723000000     4.633000000     5.422000000
C     1.576000000     4.547000000     4.903000000
H     1.644000000     5.620000000     5.060000000
C     2.648000000     3.870000000     4.395000000
O     3.868000000     4.509000000     4.212000000
C     4.740000000     4.110000000     3.271000000
C     4.404000000     4.163000000     1.871000000
H     3.401000000     4.483000000     1.603000000
C     6.049000000     3.657000000     3.551000000
H     6.443000000     3.644000000     4.565000000
C     7.010000000     3.403000000     2.539000000
H     8.057000000     3.181000000     2.731000000
C     6.623000000     3.535000000     1.206000000
H     7.448000000     3.356000000     0.522000000
C     5.329000000     3.832000000     0.890000000
O     5.004000000     3.950000000    -0.391000000
C     4.781000000     2.869000000    -1.200000000
C     4.647000000     3.137000000    -2.546000000
H     4.757000000     4.188000000    -2.804000000
C     4.281000000     2.169000000    -3.469000000
O     4.352000000     2.453000000    -4.819000000
C     3.640000000     1.854000000    -5.831000000
C     2.262000000     2.033000000    -5.919000000
H     1.657000000     2.676000000    -5.285000000
C     4.287000000     0.902000000    -6.619000000
H     5.366000000     0.781000000    -6.569000000
C     3.562000000     0.094000000    -7.490000000
H     4.070000000    -0.659000000    -8.087000000
C     2.177000000     0.306000000    -7.598000000
H     1.659000000    -0.236000000    -8.385000000
C     1.542000000     1.224000000    -6.760000000
O     0.138000000     1.361000000    -6.782000000
C    -0.794000000     0.728000000    -6.063000000
C    -2.024000000     1.350000000    -5.755000000
H    -2.334000000     2.244000000    -6.289000000
C    -3.030000000     0.731000000    -5.012000000
O    -4.213000000     1.370000000    -4.826000000
C    -5.329000000     0.887000000    -4.092000000
C    -5.786000000     1.674000000    -3.067000000
H    -5.281000000     2.582000000    -2.748000000
C    -5.910000000    -0.314000000    -4.435000000
H    -5.616000000    -0.773000000    -5.376000000
C    -6.908000000    -0.837000000    -3.629000000
H    -7.262000000    -1.855000000    -3.766000000
C    -7.301000000    -0.085000000    -2.507000000
H    -7.995000000    -0.571000000    -1.824000000
C    -6.744000000     1.167000000    -2.197000000
O    -6.948000000     1.802000000    -1.012000000
C    -6.072000000     1.516000000     0.065000000
C    -5.704000000     2.651000000     0.836000000
H    -5.961000000     3.658000000     0.516000000
C    -4.868000000     2.482000000     1.927000000
O    -4.391000000     3.573000000     2.530000000
C    -3.766000000     3.570000000     3.768000000
C    -4.495000000     3.033000000     4.861000000
H    -5.345000000     2.369000000     4.725000000
C    -3.931000000     3.049000000     6.112000000
H    -4.398000000     2.647000000     7.008000000
C    -2.629000000     3.612000000     6.261000000
H    -2.161000000     3.748000000     7.232000000
C    -1.979000000     4.130000000     5.196000000
C    -2.517000000     4.091000000     3.927000000
H    -2.006000000     4.586000000     3.105000000
C    -2.250000000     1.939000000    -0.598000000
H    -3.270000000     2.111000000    -0.931000000
C    -1.665000000     0.721000000    -0.823000000
H    -2.272000000    -0.093000000    -1.210000000
C    -0.377000000     0.488000000    -0.464000000
H     0.063000000    -0.531000000    -0.554000000
C     0.471000000     1.483000000     0.058000000
H     1.469000000     1.140000000     0.316000000
C    -0.142000000     2.685000000     0.352000000
H     0.385000000     3.378000000     1.001000000
C    -1.431000000     2.992000000    -0.088000000
C    -2.046000000     4.362000000     0.098000000
O    -1.302000000     5.268000000     0.425000000
O    -3.132000000     4.487000000    -0.320000000
O    -4.861000000     6.186000000     1.447000000
H    -5.042000000     5.949000000     2.357000000
H    -4.351000000     5.452000000     1.105000000
O    -3.665000000     4.977000000    -5.596000000
H    -2.995000000     5.159000000    -6.254000000
H    -3.186000000     4.947000000    -4.768000000
O    -1.925000000    10.114000000     0.009000000
H    -1.609000000     9.325000000     0.449000000
H    -2.850000000    10.167000000     0.248000000
O    -4.268000000     7.985000000    -4.199000000
H    -3.606000000     8.424000000    -3.664000000
H    -4.331000000     7.106000000    -3.827000000
O    -7.564000000     4.699000000    -2.693000000
H    -6.689000000     4.384000000    -2.917000000
H    -7.869000000     4.098000000    -2.014000000
O    -2.270000000     7.703000000     3.602000000
H    -3.015000000     7.246000000     3.992000000
H    -2.241000000     7.389000000     2.699000000
O    -2.627000000     8.243000000    -2.217000000
H    -2.394000000     8.707000000    -1.413000000
H    -2.067000000     7.467000000    -2.216000000
O    -2.568000000     4.023000000    -2.872000000
H    -2.809000000     4.077000000    -1.947000000
H    -1.632000000     3.827000000    -2.864000000
O    -0.543000000     6.156000000    -1.885000000
H    -0.704000000     5.816000000    -1.005000000
H     0.257000000     5.713000000    -2.170000000
O     0.091000000     8.436000000     3.305000000
H     0.423000000     7.859000000     2.617000000
H    -0.855000000     8.461000000     3.160000000
O     0.997000000     6.599000000     1.357000000
H     1.562000000     6.784000000     0.607000000
H     0.257000000     6.118000000     0.987000000
O    -0.523000000     6.842000000    -5.048000000
H    -0.144000000     6.270000000    -4.380000000
H    -0.624000000     7.687000000    -4.610000000
O     2.732000000     6.478000000    -0.574000000
H     2.797000000     6.488000000    -1.529000000
H     3.631000000     6.605000000    -0.271000000
O    -4.713000000     5.989000000    -1.827000000
H    -4.381000000     5.203000000    -1.394000000
H    -3.954000000     6.568000000    -1.888000000
O     1.837000000     5.999000000    -3.332000000
H     2.771000000     6.070000000    -3.533000000
H     1.724000000     5.096000000    -3.036000000
O    -4.654000000     6.625000000     4.450000000
H    -5.495000000     7.075000000     4.371000000
H    -4.509000000     6.551000000     5.394000000
O    -2.268000000     7.558000000     0.783000000
H    -3.171000000     7.255000000     0.869000000
H    -1.764000000     6.764000000     0.607000000
O    -6.259000000     7.849000000    -0.310000000
H    -5.539000000     7.638000000     0.284000000
H    -6.163000000     7.227000000    -1.032000000
O     0.518000000     3.164000000    -2.683000000
H     0.406000000     2.418000000    -3.272000000
H     0.665000000     2.770000000    -1.823000000
