215
-1470.17222
C    -1.562000000     1.311000000     4.684000000
H    -1.544000000     2.356000000     4.386000000
C    -0.368000000     0.515000000     4.692000000
C    -0.441000000    -0.808000000     5.124000000
H     0.498000000    -1.348000000     5.038000000
C     0.867000000     1.103000000     4.018000000
O     0.949000000     2.581000000     4.031000000
H     0.708000000     0.849000000     2.960000000
O     2.020000000     0.535000000     4.520000000
C     2.919000000     0.140000000     3.563000000
C     2.919000000    -1.197000000     3.230000000
H     2.293000000    -1.883000000     3.795000000
C     3.840000000    -1.618000000     2.303000000
O     3.676000000    -2.967000000     1.839000000
C     4.668000000    -0.791000000     1.590000000
C     5.532000000    -1.242000000     0.428000000
H     6.450000000    -0.681000000     0.241000000
C     4.648000000    -1.154000000    -0.874000000
C     4.675000000     0.004000000    -1.663000000
H     5.254000000     0.879000000    -1.378000000
H     5.986000000    -2.233000000     0.491000000
C     4.636000000     0.560000000     1.878000000
H     5.284000000     1.228000000     1.317000000
C     3.808000000     1.056000000     2.853000000
C     3.732000000     2.528000000     3.246000000
H     4.665000000     3.092000000     3.195000000
H     3.545000000     2.628000000     4.318000000
C     2.627000000     3.264000000     2.414000000
C     2.854000000     3.887000000     1.144000000
H     3.845000000     4.052000000     0.730000000
C     1.277000000     3.249000000     2.854000000
C     0.283000000     3.793000000     2.043000000
H    -0.735000000     3.617000000     2.381000000
C     0.571000000     4.471000000     0.895000000
O    -0.511000000     4.846000000     0.208000000
C    -0.972000000     4.119000000    -0.979000000
C    -2.487000000     4.211000000    -0.982000000
C    -3.235000000     4.177000000    -2.168000000
H    -2.746000000     4.032000000    -3.128000000
C    -3.227000000     4.229000000     0.208000000
H    -2.667000000     4.169000000     1.138000000
O    -0.323000000     4.852000000    -2.111000000
H    -0.691000000     3.057000000    -1.030000000
C     1.880000000     4.546000000     0.396000000
C     2.225000000     5.220000000    -0.899000000
H     3.285000000     5.484000000    -0.886000000
H     1.695000000     6.174000000    -0.950000000
C     2.033000000     4.237000000    -2.081000000
C     3.035000000     3.306000000    -2.504000000
H     4.000000000     3.438000000    -2.021000000
C     0.762000000     4.102000000    -2.629000000
C     0.458000000     3.142000000    -3.540000000
H    -0.571000000     2.965000000    -3.844000000
C     1.421000000     2.151000000    -3.887000000
O     1.060000000     1.132000000    -4.705000000
C     1.101000000    -0.204000000    -4.100000000
C    -0.109000000    -0.990000000    -4.637000000
C    -1.325000000    -0.308000000    -4.640000000
H    -1.399000000     0.736000000    -4.348000000
C    -0.072000000    -2.353000000    -4.956000000
H     0.857000000    -2.870000000    -4.730000000
O     2.321000000    -0.928000000    -4.335000000
H     0.889000000    -0.153000000    -3.022000000
C     2.719000000     2.253000000    -3.356000000
C     3.839000000     1.300000000    -3.726000000
H     4.813000000     1.794000000    -3.696000000
H     3.796000000     0.993000000    -4.773000000
C     3.883000000     0.076000000    -2.837000000
C     3.101000000    -1.047000000    -3.214000000
C     3.111000000    -2.204000000    -2.459000000
H     2.633000000    -3.157000000    -2.673000000
C     3.860000000    -2.212000000    -1.277000000
O     3.692000000    -3.347000000    -0.547000000
C     2.874000000    -3.208000000     0.625000000
H     2.249000000    -2.314000000     0.484000000
C     1.848000000    -4.339000000     0.903000000
C     1.553000000    -4.671000000     2.193000000
H     2.089000000    -4.264000000     3.046000000
C     1.124000000    -4.851000000    -0.225000000
H     1.425000000    -4.447000000    -1.188000000
C     0.028000000    -5.673000000     0.034000000
O    -0.752000000    -6.152000000    -0.981000000
C    -0.306000000    -5.989000000     1.388000000
H    -1.170000000    -6.585000000     1.668000000
C     0.533000000    -5.629000000     2.409000000
O     0.237000000    -6.086000000     3.686000000
C     0.285000000    -5.242000000     4.724000000
C    -0.761000000    -4.288000000     4.969000000
H    -1.572000000    -4.099000000     4.272000000
C     1.384000000    -5.273000000     5.507000000
H     2.156000000    -6.004000000     5.281000000
C     1.479000000    -4.517000000     6.639000000
H     2.430000000    -4.569000000     7.164000000
C     0.456000000    -3.676000000     6.967000000
H     0.516000000    -3.178000000     7.931000000
C    -0.663000000    -3.510000000     6.135000000
O    -1.527000000    -2.536000000     6.363000000
C    -1.613000000    -1.343000000     5.610000000
C    -2.760000000    -0.568000000     5.585000000
H    -3.623000000    -1.056000000     6.031000000
C    -2.723000000     0.734000000     5.131000000
O    -3.913000000     1.357000000     5.064000000
C    -4.062000000     2.590000000     4.502000000
C    -4.489000000     2.667000000     3.183000000
H    -4.568000000     1.790000000     2.545000000
C    -3.966000000     3.741000000     5.327000000
H    -3.653000000     3.615000000     6.361000000
C    -4.309000000     4.992000000     4.734000000
H    -4.294000000     5.863000000     5.385000000
C    -4.663000000     5.045000000     3.409000000
H    -4.912000000     6.035000000     3.037000000
C    -4.854000000     3.901000000     2.656000000
O    -5.341000000     4.022000000     1.392000000
C    -4.594000000     4.080000000     0.223000000
C    -5.309000000     4.072000000    -0.938000000
H    -6.389000000     4.160000000    -1.022000000
C    -4.584000000     4.014000000    -2.122000000
O    -5.262000000     3.862000000    -3.285000000
C    -4.656000000     3.156000000    -4.308000000
C    -4.372000000     1.810000000    -4.177000000
H    -4.447000000     1.346000000    -3.197000000
C    -4.777000000     3.635000000    -5.648000000
H    -5.268000000     4.579000000    -5.871000000
C    -4.419000000     2.788000000    -6.708000000
H    -4.603000000     3.218000000    -7.690000000
C    -3.869000000     1.534000000    -6.461000000
H    -3.427000000     0.917000000    -7.240000000
C    -3.884000000     0.999000000    -5.214000000
O    -3.675000000    -0.408000000    -5.063000000
C    -2.456000000    -0.999000000    -4.976000000
C    -2.430000000    -2.291000000    -5.458000000
H    -3.364000000    -2.688000000    -5.845000000
C    -1.255000000    -3.052000000    -5.248000000
O    -1.235000000    -4.451000000    -5.433000000
C    -0.553000000    -5.287000000    -4.510000000
C    -0.015000000    -6.516000000    -4.988000000
H    -0.142000000    -6.807000000    -6.027000000
C     0.522000000    -7.446000000    -4.089000000
H     1.010000000    -8.358000000    -4.422000000
C     0.475000000    -7.223000000    -2.715000000
H     0.849000000    -7.942000000    -1.989000000
C    -0.330000000    -6.147000000    -2.273000000
C    -0.835000000    -5.155000000    -3.155000000
H    -1.461000000    -4.388000000    -2.707000000
C    -1.243000000    -2.117000000     0.897000000
H    -1.103000000    -3.167000000     0.651000000
C    -0.339000000    -1.244000000     0.352000000
H     0.471000000    -1.531000000    -0.313000000
C    -0.462000000     0.111000000     0.629000000
H     0.307000000     0.703000000     0.175000000
C    -1.535000000     0.555000000     1.451000000
H    -1.602000000     1.608000000     1.711000000
C    -2.384000000    -0.346000000     2.079000000
H    -3.218000000    -0.028000000     2.700000000
C    -2.371000000    -1.690000000     1.744000000
C    -3.351000000    -2.649000000     2.319000000
O    -4.364000000    -2.134000000     2.698000000
O    -3.152000000    -3.870000000     2.399000000
O    -4.107000000    -5.157000000    -2.716000000
H    -4.020000000    -5.224000000    -1.765000000
H    -4.176000000    -4.217000000    -2.885000000
O    -2.156000000    -7.566000000     5.769000000
H    -1.581000000    -8.060000000     6.354000000
H    -3.004000000    -7.566000000     6.212000000
O    -3.664000000    -5.941000000     3.923000000
H    -3.304000000    -5.191000000     3.451000000
H    -2.918000000    -6.306000000     4.398000000
O    -3.700000000     0.083000000    -1.368000000
H    -2.880000000     0.166000000    -0.881000000
H    -4.217000000    -0.545000000    -0.863000000
O    -5.616000000    -1.783000000     0.333000000
H    -5.330000000    -2.029000000     1.213000000
H    -6.393000000    -1.242000000     0.476000000
O    -8.747000000    -1.468000000     0.731000000
H    -9.504000000    -2.055000000     0.739000000
H    -8.201000000    -1.771000000     1.456000000
O    -8.567000000     0.764000000     2.881000000
H    -7.657000000     0.600000000     3.127000000
H    -8.900000000    -0.091000000     2.611000000
O    -4.254000000    -5.496000000    -0.083000000
H    -4.062000000    -4.887000000     0.630000000
H    -4.308000000    -6.352000000     0.342000000
O    -2.547000000    -4.079000000     8.805000000
H    -3.476000000    -4.044000000     8.577000000
H    -2.104000000    -3.647000000     8.075000000
O    -7.498000000    -3.012000000     3.126000000
H    -6.546000000    -3.074000000     3.205000000
H    -7.825000000    -3.221000000     4.002000000
O    -6.580000000    -0.060000000     6.336000000
H    -6.102000000    -0.671000000     6.897000000
H    -6.203000000     0.796000000     6.538000000
O    -5.179000000    -3.681000000     4.900000000
H    -4.811000000    -2.937000000     4.424000000
H    -4.606000000    -4.415000000     4.678000000
O    -5.187000000    -4.461000000     7.594000000
H    -5.708000000    -5.254000000     7.721000000
H    -5.025000000    -4.428000000     6.651000000
O    -1.100000000    -8.850000000     3.402000000
H    -1.489000000    -8.093000000     3.839000000
H    -0.210000000    -8.896000000     3.750000000
O    -8.055000000    -5.236000000     1.206000000
H    -7.206000000    -5.211000000     0.766000000
H    -8.130000000    -4.382000000     1.632000000
O    -4.983000000    -2.498000000    -2.517000000
H    -5.190000000    -2.715000000    -1.608000000
H    -5.104000000    -1.550000000    -2.571000000
O    -4.678000000    -7.712000000     1.841000000
H    -4.298000000    -7.023000000     2.386000000
H    -4.730000000    -8.473000000     2.419000000
O    -5.954000000    -0.162000000     3.278000000
H    -5.554000000     0.174000000     4.080000000
H    -5.526000000    -1.006000000     3.132000000
O    -5.491000000    -1.544000000     8.343000000
H    -5.250000000    -2.337000000     7.864000000
H    -6.041000000    -1.855000000     9.061000000
