215
-1478.03795
C    -0.796000000     0.698000000     5.120000000
H    -1.029000000     1.667000000     4.684000000
C     0.476000000     0.126000000     4.862000000
C     0.691000000    -1.211000000     5.157000000
H     1.548000000    -1.725000000     4.731000000
C     1.450000000     0.898000000     3.924000000
O     1.404000000     2.353000000     4.176000000
H     1.119000000     0.914000000     2.875000000
O     2.806000000     0.514000000     4.096000000
C     3.488000000     0.253000000     2.985000000
C     3.605000000    -1.026000000     2.526000000
H     3.182000000    -1.822000000     3.133000000
C     4.300000000    -1.379000000     1.342000000
O     4.268000000    -2.693000000     0.862000000
C     4.869000000    -0.286000000     0.626000000
C     5.676000000    -0.453000000    -0.578000000
H     6.323000000     0.387000000    -0.838000000
C     4.713000000    -0.402000000    -1.775000000
C     4.310000000     0.809000000    -2.331000000
H     4.911000000     1.679000000    -2.077000000
H     6.186000000    -1.418000000    -0.525000000
C     4.733000000     1.049000000     1.130000000
H     5.010000000     1.915000000     0.534000000
C     4.019000000     1.366000000     2.327000000
C     3.884000000     2.780000000     2.744000000
H     4.624000000     3.512000000     2.414000000
H     4.044000000     2.777000000     3.824000000
C     2.542000000     3.424000000     2.412000000
C     2.497000000     4.247000000     1.313000000
H     3.355000000     4.356000000     0.654000000
C     1.399000000     3.215000000     3.118000000
C     0.146000000     3.711000000     2.737000000
H    -0.721000000     3.539000000     3.370000000
C     0.113000000     4.490000000     1.570000000
O    -1.135000000     4.742000000     1.096000000
C    -1.671000000     3.912000000     0.035000000
C    -3.142000000     3.664000000     0.289000000
C    -3.930000000     3.318000000    -0.865000000
H    -3.442000000     3.471000000    -1.824000000
C    -3.698000000     3.563000000     1.587000000
H    -3.034000000     3.640000000     2.445000000
O    -1.327000000     4.510000000    -1.179000000
H    -1.230000000     2.923000000     0.225000000
C     1.295000000     4.792000000     0.865000000
C     1.223000000     5.428000000    -0.472000000
H     1.970000000     6.190000000    -0.705000000
H     0.442000000     6.188000000    -0.543000000
C     1.054000000     4.453000000    -1.602000000
C     2.139000000     3.875000000    -2.214000000
H     3.165000000     4.119000000    -1.950000000
C    -0.267000000     4.007000000    -1.861000000
C    -0.520000000     3.070000000    -2.834000000
H    -1.528000000     2.684000000    -2.959000000
C     0.575000000     2.639000000    -3.551000000
O     0.308000000     1.729000000    -4.548000000
C     0.412000000     0.372000000    -4.122000000
C    -0.804000000    -0.472000000    -4.432000000
C    -1.969000000     0.193000000    -4.901000000
H    -1.991000000     1.273000000    -5.019000000
C    -0.804000000    -1.852000000    -4.204000000
H     0.110000000    -2.244000000    -3.766000000
O     1.660000000    -0.196000000    -4.560000000
H     0.424000000     0.251000000    -3.029000000
C     1.879000000     2.964000000    -3.226000000
C     3.077000000     2.271000000    -3.934000000
H     3.918000000     2.954000000    -3.798000000
H     2.889000000     2.232000000    -5.009000000
C     3.319000000     0.897000000    -3.293000000
C     2.775000000    -0.291000000    -3.720000000
C     3.139000000    -1.530000000    -3.226000000
H     2.704000000    -2.426000000    -3.661000000
C     4.038000000    -1.557000000    -2.175000000
O     4.186000000    -2.730000000    -1.522000000
C     3.380000000    -2.843000000    -0.297000000
H     2.678000000    -1.999000000    -0.236000000
C     2.501000000    -4.034000000    -0.263000000
C     1.829000000    -4.347000000     0.960000000
H     1.923000000    -3.790000000     1.889000000
C     2.390000000    -4.775000000    -1.433000000
H     2.884000000    -4.391000000    -2.322000000
C     1.629000000    -5.939000000    -1.371000000
O     1.471000000    -6.694000000    -2.478000000
C     1.008000000    -6.322000000    -0.189000000
H     0.394000000    -7.218000000    -0.181000000
C     1.137000000    -5.525000000     0.988000000
O     0.523000000    -5.938000000     2.132000000
C     0.878000000    -5.631000000     3.420000000
C     0.271000000    -4.569000000     4.031000000
H    -0.384000000    -3.972000000     3.400000000
C     1.733000000    -6.483000000     4.149000000
H     2.085000000    -7.383000000     3.651000000
C     2.127000000    -6.146000000     5.425000000
H     2.787000000    -6.784000000     6.008000000
C     1.472000000    -5.112000000     6.068000000
H     1.702000000    -5.010000000     7.125000000
C     0.549000000    -4.314000000     5.382000000
O    -0.114000000    -3.316000000     6.049000000
C    -0.300000000    -1.966000000     5.761000000
C    -1.567000000    -1.412000000     6.137000000
H    -2.349000000    -1.977000000     6.638000000
C    -1.788000000    -0.090000000     5.710000000
O    -3.070000000     0.298000000     5.926000000
C    -3.668000000     1.532000000     5.581000000
C    -4.470000000     1.576000000     4.476000000
H    -4.550000000     0.668000000     3.884000000
C    -3.466000000     2.719000000     6.367000000
H    -2.841000000     2.587000000     7.247000000
C    -4.129000000     3.924000000     6.094000000
H    -4.037000000     4.786000000     6.749000000
C    -4.944000000     3.910000000     4.943000000
H    -5.521000000     4.779000000     4.637000000
C    -5.046000000     2.810000000     4.141000000
O    -5.693000000     2.967000000     2.918000000
C    -5.074000000     3.202000000     1.728000000
C    -5.780000000     2.879000000     0.586000000
H    -6.830000000     2.615000000     0.689000000
C    -5.236000000     2.858000000    -0.683000000
O    -6.105000000     2.486000000    -1.669000000
C    -5.728000000     2.326000000    -2.969000000
C    -5.155000000     1.212000000    -3.559000000
H    -4.981000000     0.328000000    -2.951000000
C    -5.865000000     3.476000000    -3.765000000
H    -6.263000000     4.398000000    -3.347000000
C    -5.403000000     3.558000000    -5.045000000
H    -5.384000000     4.483000000    -5.616000000
C    -4.849000000     2.437000000    -5.640000000
H    -4.444000000     2.429000000    -6.648000000
C    -4.671000000     1.286000000    -4.882000000
O    -4.216000000     0.089000000    -5.558000000
C    -3.092000000    -0.591000000    -5.136000000
C    -3.093000000    -2.005000000    -4.946000000
H    -3.948000000    -2.609000000    -5.238000000
C    -1.935000000    -2.647000000    -4.566000000
O    -1.940000000    -4.021000000    -4.452000000
C    -0.838000000    -4.756000000    -4.507000000
C    -0.100000000    -4.764000000    -5.710000000
H    -0.465000000    -4.118000000    -6.504000000
C     1.110000000    -5.455000000    -5.839000000
H     1.553000000    -5.365000000    -6.828000000
C     1.628000000    -6.144000000    -4.776000000
H     2.575000000    -6.669000000    -4.861000000
C     0.904000000    -6.066000000    -3.566000000
C    -0.306000000    -5.371000000    -3.415000000
H    -0.784000000    -5.365000000    -2.438000000
C    -0.756000000    -2.026000000    -0.487000000
H    -0.947000000    -3.000000000    -0.930000000
C     0.370000000    -1.275000000    -0.813000000
H     1.091000000    -1.615000000    -1.552000000
C     0.644000000    -0.037000000    -0.201000000
H     1.548000000     0.495000000    -0.525000000
C    -0.310000000     0.509000000     0.676000000
H    -0.094000000     1.456000000     1.165000000
C    -1.428000000    -0.249000000     1.069000000
H    -2.154000000    -0.019000000     1.844000000
C    -1.661000000    -1.532000000     0.512000000
C    -2.823000000    -2.378000000     0.981000000
O    -3.729000000    -2.048000000     1.751000000
O    -3.084000000    -3.401000000     0.327000000
O    -2.222000000    -5.663000000     1.710000000
H    -2.310000000    -4.771000000     1.374000000
H    -1.279000000    -5.786000000     1.817000000
O    -5.975000000    -1.665000000     0.015000000
H    -5.982000000    -1.257000000     0.881000000
H    -5.195000000    -2.220000000     0.018000000
O    -8.256000000     0.891000000     2.693000000
H    -7.555000000     0.240000000     2.728000000
H    -8.657000000     0.766000000     1.833000000
O    -5.129000000    -4.631000000    -4.656000000
H    -5.548000000    -3.881000000    -4.236000000
H    -4.585000000    -5.018000000    -3.970000000
O    -5.237000000    -4.974000000     1.157000000
H    -4.937000000    -5.328000000     1.994000000
H    -4.620000000    -4.269000000     0.960000000
O    -8.024000000    -5.067000000     2.232000000
H    -7.595000000    -4.558000000     2.920000000
H    -7.303000000    -5.445000000     1.728000000
O    -7.731000000    -0.998000000    -3.650000000
H    -6.892000000    -1.314000000    -3.316000000
H    -7.644000000    -1.050000000    -4.602000000
O    -7.086000000    -2.851000000     4.558000000
H    -7.384000000    -1.979000000     4.817000000
H    -7.189000000    -3.383000000     5.347000000
O    -4.101000000    -6.016000000     3.617000000
H    -3.759000000    -6.111000000     4.506000000
H    -3.364000000    -6.246000000     3.051000000
O    -4.036000000    -4.746000000    -1.823000000
H    -3.645000000    -4.116000000    -1.216000000
H    -4.167000000    -5.535000000    -1.297000000
O    -8.159000000    -3.622000000    -0.195000000
H    -8.322000000    -4.027000000     0.657000000
H    -7.678000000    -2.820000000     0.008000000
O    -4.649000000    -3.576000000     6.666000000
H    -4.301000000    -4.457000000     6.802000000
H    -4.472000000    -3.389000000     5.744000000
O    -6.515000000    -6.843000000    -0.172000000
H    -5.974000000    -6.074000000     0.005000000
H    -6.005000000    -7.578000000     0.167000000
O    -6.085000000    -1.040000000     2.602000000
H    -6.341000000    -1.758000000     3.182000000
H    -5.164000000    -1.207000000     2.406000000
O    -3.745000000    -3.197000000     4.003000000
H    -3.829000000    -2.749000000     3.161000000
H    -3.846000000    -4.126000000     3.791000000
O    -3.125000000    -7.351000000    -0.359000000
H    -2.920000000    -6.799000000     0.396000000
H    -2.657000000    -8.169000000    -0.193000000
O    -5.751000000    -2.681000000    -2.738000000
H    -5.297000000    -3.456000000    -2.409000000
H    -6.131000000    -2.277000000    -1.958000000
O    -8.640000000     0.098000000    -0.491000000
H    -8.533000000     0.603000000    -1.297000000
H    -7.766000000    -0.243000000    -0.304000000
O    -2.981000000    -5.571000000     6.245000000
H    -3.062000000    -6.346000000     6.800000000
H    -2.041000000    -5.398000000     6.210000000
