215
-1466.65557
C    -1.176000000     0.940000000     5.086000000
H    -1.158000000     1.954000000     4.696000000
C     0.061000000     0.302000000     4.965000000
C     0.136000000    -1.043000000     5.336000000
H     1.021000000    -1.655000000     5.185000000
C     1.241000000     0.971000000     4.245000000
O     1.200000000     2.419000000     4.292000000
H     0.955000000     0.697000000     3.218000000
O     2.503000000     0.251000000     4.526000000
C     3.209000000    -0.011000000     3.323000000
C     3.160000000    -1.244000000     2.828000000
H     2.575000000    -1.980000000     3.374000000
C     3.871000000    -1.589000000     1.737000000
O     3.688000000    -2.883000000     1.267000000
C     4.705000000    -0.666000000     1.133000000
C     5.479000000    -1.027000000    -0.147000000
H     6.280000000    -0.318000000    -0.369000000
C     4.560000000    -0.947000000    -1.416000000
C     4.391000000     0.282000000    -2.070000000
H     5.034000000     1.073000000    -1.694000000
H     5.831000000    -2.058000000    -0.077000000
C     4.750000000     0.680000000     1.585000000
H     5.326000000     1.484000000     1.135000000
C     3.951000000     0.994000000     2.696000000
C     3.911000000     2.415000000     3.090000000
H     4.875000000     2.846000000     2.812000000
H     3.860000000     2.604000000     4.164000000
C     2.668000000     3.085000000     2.460000000
C     2.863000000     3.791000000     1.237000000
H     3.852000000     3.807000000     0.787000000
C     1.429000000     3.025000000     3.089000000
C     0.361000000     3.703000000     2.478000000
H    -0.635000000     3.756000000     2.911000000
C     0.517000000     4.420000000     1.285000000
O    -0.617000000     4.907000000     0.665000000
C    -1.199000000     4.072000000    -0.338000000
C    -2.722000000     4.101000000    -0.177000000
C    -3.515000000     3.845000000    -1.314000000
H    -3.071000000     3.637000000    -2.284000000
C    -3.234000000     4.136000000     1.132000000
H    -2.519000000     4.207000000     1.948000000
O    -0.785000000     4.592000000    -1.591000000
H    -0.760000000     3.067000000    -0.250000000
C     1.792000000     4.443000000     0.665000000
C     1.982000000     5.149000000    -0.644000000
H     3.050000000     5.359000000    -0.731000000
H     1.479000000     6.115000000    -0.562000000
C     1.604000000     4.250000000    -1.841000000
C     2.611000000     3.554000000    -2.490000000
H     3.650000000     3.605000000    -2.173000000
C     0.308000000     4.048000000    -2.307000000
C     0.087000000     3.266000000    -3.395000000
H    -0.961000000     3.132000000    -3.648000000
C     1.099000000     2.529000000    -3.981000000
O     0.700000000     1.555000000    -4.925000000
C     0.637000000     0.204000000    -4.410000000
C    -0.631000000    -0.561000000    -4.863000000
C    -1.879000000     0.063000000    -4.923000000
H    -2.068000000     1.121000000    -4.759000000
C    -0.579000000    -1.895000000    -5.123000000
H     0.363000000    -2.431000000    -5.035000000
O     1.917000000    -0.506000000    -4.670000000
H     0.611000000     0.400000000    -3.328000000
C     2.341000000     2.640000000    -3.488000000
C     3.482000000     1.760000000    -3.929000000
H     4.418000000     2.322000000    -3.935000000
H     3.365000000     1.571000000    -4.998000000
C     3.532000000     0.439000000    -3.190000000
C     2.727000000    -0.659000000    -3.564000000
C     2.852000000    -1.887000000    -2.826000000
H     2.237000000    -2.724000000    -3.146000000
C     3.789000000    -2.056000000    -1.829000000
O     3.737000000    -3.186000000    -1.069000000
C     2.865000000    -3.057000000     0.036000000
H     2.243000000    -2.153000000    -0.047000000
C     2.003000000    -4.330000000     0.157000000
C     1.643000000    -4.718000000     1.434000000
H     2.071000000    -4.210000000     2.295000000
C     1.419000000    -4.856000000    -0.965000000
H     1.666000000    -4.398000000    -1.919000000
C     0.637000000    -5.957000000    -0.846000000
O     0.199000000    -6.646000000    -1.940000000
C     0.404000000    -6.575000000     0.471000000
H    -0.109000000    -7.533000000     0.507000000
C     0.833000000    -5.868000000     1.580000000
O     0.325000000    -6.203000000     2.741000000
C     0.609000000    -5.575000000     3.963000000
C    -0.331000000    -4.622000000     4.447000000
H    -1.191000000    -4.257000000     3.892000000
C     1.735000000    -5.877000000     4.694000000
H     2.486000000    -6.618000000     4.430000000
C     1.957000000    -5.295000000     5.974000000
H     2.834000000    -5.520000000     6.575000000
C     0.941000000    -4.441000000     6.534000000
H     1.079000000    -3.998000000     7.517000000
C    -0.147000000    -4.024000000     5.721000000
O    -1.049000000    -3.062000000     6.146000000
C    -1.010000000    -1.717000000     5.799000000
C    -2.244000000    -1.068000000     5.959000000
H    -3.082000000    -1.658000000     6.321000000
C    -2.332000000     0.271000000     5.564000000
O    -3.578000000     0.847000000     5.629000000
C    -3.780000000     2.186000000     5.314000000
C    -4.445000000     2.512000000     4.157000000
H    -4.949000000     1.685000000     3.663000000
C    -3.191000000     3.194000000     6.096000000
H    -2.720000000     2.983000000     7.053000000
C    -3.377000000     4.479000000     5.767000000
H    -3.070000000     5.368000000     6.312000000
C    -4.040000000     4.831000000     4.608000000
H    -4.138000000     5.906000000     4.472000000
C    -4.539000000     3.814000000     3.755000000
O    -5.167000000     4.162000000     2.599000000
C    -4.641000000     4.131000000     1.315000000
C    -5.458000000     4.018000000     0.211000000
H    -6.519000000     3.877000000     0.399000000
C    -4.891000000     3.710000000    -1.063000000
O    -5.756000000     3.352000000    -2.093000000
C    -5.301000000     2.983000000    -3.316000000
C    -4.961000000     1.675000000    -3.562000000
H    -4.999000000     0.943000000    -2.759000000
C    -5.565000000     3.857000000    -4.394000000
H    -6.022000000     4.815000000    -4.159000000
C    -5.175000000     3.423000000    -5.685000000
H    -5.308000000     4.110000000    -6.516000000
C    -4.722000000     2.166000000    -5.869000000
H    -4.634000000     1.807000000    -6.891000000
C    -4.581000000     1.292000000    -4.840000000
O    -4.286000000    -0.066000000    -5.056000000
C    -2.996000000    -0.683000000    -5.213000000
C    -2.919000000    -2.038000000    -5.277000000
H    -3.780000000    -2.646000000    -5.543000000
C    -1.746000000    -2.708000000    -5.281000000
O    -1.819000000    -4.011000000    -5.370000000
C    -0.872000000    -4.917000000    -4.926000000
C    -0.095000000    -5.601000000    -5.918000000
H    -0.289000000    -5.262000000    -6.933000000
C     0.792000000    -6.577000000    -5.553000000
H     1.347000000    -7.109000000    -6.321000000
C     0.890000000    -6.900000000    -4.209000000
H     1.596000000    -7.675000000    -3.922000000
C     0.100000000    -6.288000000    -3.266000000
C    -0.720000000    -5.215000000    -3.594000000
H    -1.229000000    -4.718000000    -2.772000000
C    -0.931000000    -1.848000000     0.493000000
H    -0.942000000    -2.800000000    -0.031000000
C     0.043000000    -0.862000000     0.196000000
H     0.792000000    -1.070000000    -0.564000000
C    -0.070000000     0.424000000     0.795000000
H     0.655000000     1.166000000     0.618000000
C    -1.135000000     0.633000000     1.658000000
H    -1.239000000     1.619000000     2.103000000
C    -2.113000000    -0.293000000     1.973000000
H    -2.968000000    -0.052000000     2.600000000
C    -1.970000000    -1.580000000     1.407000000
C    -3.045000000    -2.643000000     1.783000000
O    -4.087000000    -2.297000000     2.282000000
O    -2.968000000    -3.790000000     1.414000000
O    -4.370000000    -4.583000000    -2.990000000
H    -3.945000000    -4.891000000    -2.190000000
H    -4.114000000    -3.664000000    -3.058000000
O    -3.431000000    -6.079000000     2.743000000
H    -3.128000000    -5.263000000     2.345000000
H    -2.652000000    -6.634000000     2.773000000
O    -2.637000000     0.222000000    -1.103000000
H    -3.192000000     0.496000000    -0.372000000
H    -1.755000000     0.186000000    -0.733000000
O    -7.735000000     1.507000000     2.818000000
H    -7.000000000     0.928000000     3.021000000
H    -8.183000000     1.077000000     2.089000000
O    -5.454000000    -4.410000000     0.694000000
H    -4.554000000    -4.122000000     0.845000000
H    -5.738000000    -4.762000000     1.538000000
O    -7.667000000    -2.486000000     2.505000000
H    -8.304000000    -2.044000000     1.944000000
H    -7.041000000    -1.801000000     2.742000000
O    -8.358000000    -3.057000000     5.307000000
H    -8.129000000    -2.743000000     4.432000000
H    -8.666000000    -3.953000000     5.166000000
O    -5.964000000    -7.446000000     2.692000000
H    -6.034000000    -7.543000000     3.642000000
H    -5.200000000    -6.884000000     2.564000000
O    -2.834000000    -5.560000000    -0.882000000
H    -2.684000000    -4.869000000    -0.237000000
H    -2.794000000    -6.372000000    -0.376000000
O    -6.782000000    -2.973000000    -1.427000000
H    -6.452000000    -3.624000000    -0.808000000
H    -6.006000000    -2.476000000    -1.688000000
O    -3.411000000    -4.431000000     7.637000000
H    -3.576000000    -5.304000000     7.994000000
H    -2.976000000    -4.594000000     6.799000000
O    -6.676000000    -4.879000000     3.390000000
H    -5.905000000    -4.835000000     3.956000000
H    -6.716000000    -4.019000000     2.973000000
O    -6.020000000    -0.584000000     3.233000000
H    -6.010000000    -1.142000000     4.010000000
H    -5.222000000    -0.818000000     2.759000000
O    -4.189000000    -3.917000000     4.508000000
H    -4.108000000    -3.405000000     3.703000000
H    -3.877000000    -4.789000000     4.269000000
O    -2.545000000    -8.061000000     0.335000000
H    -3.438000000    -8.338000000     0.128000000
H    -2.398000000    -8.374000000     1.227000000
O    -4.010000000    -1.919000000    -2.221000000
H    -4.097000000    -1.273000000    -2.921000000
H    -3.605000000    -1.437000000    -1.500000000
O    -6.987000000    -6.479000000    -0.605000000
H    -6.413000000    -5.805000000    -0.242000000
H    -7.861000000    -6.241000000    -0.296000000
O    -4.976000000    -0.497000000     0.524000000
H    -5.926000000    -0.382000000     0.547000000
H    -4.815000000    -1.261000000     1.079000000
O    -5.602000000    -1.799000000     5.567000000
H    -5.174000000    -2.656000000     5.553000000
H    -6.048000000    -1.768000000     6.413000000
