215
-1473.67689
C    -0.996000000     1.888000000     4.659000000
H    -0.932000000     2.825000000     4.110000000
C     0.084000000     0.980000000     4.645000000
C    -0.018000000    -0.230000000     5.301000000
H     0.858000000    -0.873000000     5.297000000
C     1.304000000     1.375000000     3.897000000
O     1.533000000     2.807000000     3.932000000
H     1.118000000     1.078000000     2.854000000
O     2.525000000     0.642000000     4.315000000
C     3.237000000     0.074000000     3.245000000
C     3.126000000    -1.270000000     3.030000000
H     2.523000000    -1.853000000     3.722000000
C     3.642000000    -1.807000000     1.864000000
O     3.268000000    -3.060000000     1.535000000
C     4.474000000    -1.065000000     1.083000000
C     5.216000000    -1.551000000    -0.152000000
H     6.169000000    -1.026000000    -0.247000000
C     4.386000000    -1.434000000    -1.369000000
C     4.504000000    -0.383000000    -2.297000000
H     5.145000000     0.450000000    -2.020000000
H     5.518000000    -2.587000000     0.011000000
C     4.685000000     0.237000000     1.375000000
H     5.312000000     0.785000000     0.676000000
C     4.025000000     0.876000000     2.426000000
C     4.204000000     2.406000000     2.711000000
H     5.176000000     2.758000000     2.360000000
H     4.185000000     2.548000000     3.793000000
C     3.127000000     3.285000000     2.125000000
C     3.355000000     3.798000000     0.803000000
H     4.304000000     3.632000000     0.299000000
C     1.909000000     3.499000000     2.793000000
C     0.965000000     4.299000000     2.194000000
H     0.098000000     4.646000000     2.751000000
C     1.076000000     4.719000000     0.867000000
O    -0.043000000     5.210000000     0.263000000
C    -0.665000000     4.266000000    -0.667000000
C    -2.202000000     4.274000000    -0.500000000
C    -2.995000000     3.965000000    -1.642000000
H    -2.402000000     3.687000000    -2.510000000
C    -2.809000000     4.717000000     0.680000000
H    -2.273000000     5.181000000     1.504000000
O    -0.259000000     4.488000000    -2.024000000
H    -0.402000000     3.216000000    -0.477000000
C     2.259000000     4.423000000     0.129000000
C     2.479000000     4.932000000    -1.228000000
H     3.545000000     5.094000000    -1.396000000
H     1.913000000     5.855000000    -1.372000000
C     2.059000000     3.897000000    -2.277000000
C     2.979000000     2.941000000    -2.722000000
H     4.036000000     3.010000000    -2.481000000
C     0.708000000     3.674000000    -2.554000000
C     0.253000000     2.592000000    -3.301000000
H    -0.801000000     2.470000000    -3.539000000
C     1.121000000     1.684000000    -3.794000000
O     0.652000000     0.700000000    -4.540000000
C     0.635000000    -0.686000000    -4.134000000
C    -0.686000000    -1.405000000    -4.422000000
C    -1.884000000    -0.670000000    -4.474000000
H    -1.870000000     0.415000000    -4.403000000
C    -0.660000000    -2.783000000    -4.587000000
H     0.234000000    -3.383000000    -4.434000000
O     1.841000000    -1.274000000    -4.680000000
H     0.691000000    -0.760000000    -3.038000000
C     2.518000000     1.918000000    -3.548000000
C     3.551000000     0.992000000    -4.216000000
H     4.549000000     1.432000000    -4.246000000
H     3.253000000     0.854000000    -5.258000000
C     3.651000000    -0.281000000    -3.402000000
C     2.783000000    -1.395000000    -3.688000000
C     2.724000000    -2.478000000    -2.796000000
H     1.983000000    -3.245000000    -3.004000000
C     3.496000000    -2.494000000    -1.704000000
O     3.236000000    -3.531000000    -0.836000000
C     2.436000000    -3.260000000     0.406000000
H     1.873000000    -2.324000000     0.273000000
C     1.367000000    -4.375000000     0.605000000
C     0.601000000    -4.333000000     1.818000000
H     0.816000000    -3.624000000     2.613000000
C     0.964000000    -5.292000000    -0.393000000
H     1.455000000    -5.322000000    -1.362000000
C    -0.070000000    -6.161000000    -0.194000000
O    -0.334000000    -7.223000000    -1.070000000
C    -0.700000000    -6.234000000     1.052000000
H    -1.466000000    -6.952000000     1.333000000
C    -0.393000000    -5.289000000     2.047000000
O    -0.851000000    -5.508000000     3.256000000
C    -0.508000000    -4.806000000     4.407000000
C    -1.048000000    -3.568000000     4.785000000
H    -1.737000000    -3.022000000     4.146000000
C     0.429000000    -5.460000000     5.261000000
H     0.854000000    -6.433000000     5.030000000
C     0.643000000    -4.971000000     6.594000000
H     1.273000000    -5.626000000     7.190000000
C    -0.010000000    -3.806000000     7.004000000
H     0.002000000    -3.473000000     8.039000000
C    -0.798000000    -3.104000000     6.092000000
O    -1.441000000    -1.898000000     6.397000000
C    -1.291000000    -0.666000000     5.772000000
C    -2.361000000     0.218000000     5.907000000
H    -3.211000000    -0.148000000     6.478000000
C    -2.198000000     1.494000000     5.396000000
O    -3.277000000     2.347000000     5.550000000
C    -3.491000000     3.565000000     4.937000000
C    -3.988000000     3.674000000     3.629000000
H    -4.168000000     2.749000000     3.088000000
C    -3.038000000     4.708000000     5.654000000
H    -2.513000000     4.623000000     6.602000000
C    -3.342000000     5.986000000     5.206000000
H    -3.093000000     6.897000000     5.744000000
C    -3.928000000     6.101000000     3.961000000
H    -4.248000000     7.085000000     3.628000000
C    -4.200000000     4.978000000     3.137000000
O    -4.865000000     5.130000000     1.874000000
C    -4.226000000     4.712000000     0.715000000
C    -5.034000000     4.270000000    -0.352000000
H    -6.108000000     4.196000000    -0.204000000
C    -4.390000000     3.880000000    -1.555000000
O    -5.114000000     3.514000000    -2.672000000
C    -4.555000000     2.865000000    -3.735000000
C    -4.527000000     1.444000000    -3.781000000
H    -4.781000000     0.885000000    -2.884000000
C    -4.245000000     3.580000000    -4.874000000
H    -4.198000000     4.660000000    -4.984000000
C    -3.923000000     2.886000000    -6.005000000
H    -3.527000000     3.383000000    -6.886000000
C    -3.973000000     1.502000000    -6.077000000
H    -3.812000000     0.973000000    -7.012000000
C    -4.205000000     0.733000000    -4.923000000
O    -4.285000000    -0.591000000    -4.914000000
C    -3.120000000    -1.344000000    -4.676000000
C    -3.076000000    -2.761000000    -4.704000000
H    -4.016000000    -3.297000000    -4.811000000
C    -1.860000000    -3.426000000    -4.719000000
O    -1.955000000    -4.764000000    -4.955000000
C    -1.085000000    -5.644000000    -4.315000000
C    -0.216000000    -6.375000000    -5.093000000
H    -0.163000000    -6.142000000    -6.154000000
C     0.511000000    -7.427000000    -4.610000000
H     1.196000000    -7.966000000    -5.259000000
C     0.399000000    -7.743000000    -3.249000000
H     1.047000000    -8.490000000    -2.796000000
C    -0.382000000    -6.967000000    -2.411000000
C    -1.108000000    -5.874000000    -2.938000000
H    -1.786000000    -5.279000000    -2.331000000
C    -1.148000000    -2.399000000    -0.142000000
H    -1.243000000    -3.261000000    -0.797000000
C    -0.232000000    -1.414000000    -0.410000000
H     0.402000000    -1.462000000    -1.291000000
C    -0.207000000    -0.241000000     0.340000000
H     0.553000000     0.525000000     0.059000000
C    -1.157000000    -0.036000000     1.322000000
H    -1.219000000     0.953000000     1.769000000
C    -2.009000000    -1.045000000     1.663000000
H    -2.782000000    -0.924000000     2.417000000
C    -2.039000000    -2.218000000     0.917000000
C    -3.054000000    -3.314000000     1.220000000
O    -3.598000000    -3.297000000     2.311000000
O    -3.585000000    -3.940000000     0.368000000
O    -5.509000000    -1.101000000    -0.291000000
H    -4.923000000    -0.918000000    -1.025000000
H    -5.694000000    -2.038000000    -0.360000000
O    -4.317000000    -6.174000000     2.300000000
H    -3.995000000    -5.305000000     2.062000000
H    -4.994000000    -6.365000000     1.650000000
O    -2.949000000     0.347000000    -1.102000000
H    -3.211000000     1.189000000    -0.729000000
H    -2.234000000     0.048000000    -0.540000000
O    -3.373000000    -8.874000000     1.901000000
H    -3.577000000    -8.031000000     2.306000000
H    -4.208000000    -9.176000000     1.544000000
O    -3.022000000    -5.718000000     6.650000000
H    -3.368000000    -5.073000000     6.033000000
H    -3.006000000    -6.538000000     6.156000000
O    -6.013000000    -2.339000000     2.357000000
H    -5.154000000    -2.739000000     2.489000000
H    -5.989000000    -2.013000000     1.458000000
O    -4.369000000    -5.352000000    -1.704000000
H    -5.253000000    -5.005000000    -1.583000000
H    -3.872000000    -5.006000000    -0.963000000
O    -6.067000000    -3.612000000    -0.318000000
H    -6.593000000    -4.307000000     0.077000000
H    -5.202000000    -3.712000000     0.079000000
O    -9.298000000    -4.018000000     0.139000000
H    -9.570000000    -4.935000000     0.130000000
H    -8.800000000    -3.923000000     0.951000000
O    -8.526000000    -0.926000000     0.740000000
H    -8.117000000    -0.315000000     0.127000000
H    -8.560000000    -1.756000000     0.264000000
O    -4.377000000    -3.674000000     4.881000000
H    -3.824000000    -3.439000000     4.136000000
H    -5.238000000    -3.842000000     4.496000000
O    -7.745000000    -4.589000000     2.297000000
H    -7.007000000    -3.980000000     2.310000000
H    -7.674000000    -5.068000000     3.122000000
O    -3.921000000    -7.913000000     5.250000000
H    -4.535000000    -8.627000000     5.424000000
H    -4.298000000    -7.449000000     4.502000000
O    -5.217000000    -2.273000000     7.001000000
H    -4.671000000    -2.694000000     6.336000000
H    -5.706000000    -1.605000000     6.521000000
O    -7.872000000    -1.506000000     4.257000000
H    -7.148000000    -1.565000000     3.633000000
H    -8.458000000    -0.849000000     3.882000000
O    -4.999000000     1.189000000     1.112000000
H    -5.010000000     0.287000000     0.791000000
H    -5.687000000     1.629000000     0.613000000
O    -5.096000000    -8.018000000    -1.884000000
H    -4.845000000    -7.096000000    -1.832000000
H    -4.288000000    -8.473000000    -2.123000000
O    -6.618000000    -6.255000000     0.370000000
H    -7.167000000    -6.075000000     1.133000000
H    -7.222000000    -6.613000000    -0.280000000
O    -6.788000000     1.793000000     3.426000000
H    -6.111000000     1.209000000     3.083000000
H    -7.509000000     1.210000000     3.664000000
