215
-1473.37411
C    -2.305000000     1.362000000     4.562000000
H    -2.041000000     2.365000000     4.237000000
C    -1.411000000     0.301000000     4.448000000
C    -1.927000000    -1.016000000     4.478000000
H    -1.264000000    -1.850000000     4.262000000
C     0.060000000     0.537000000     4.069000000
O     0.459000000     1.824000000     4.480000000
H     0.075000000     0.405000000     2.977000000
O     0.927000000    -0.376000000     4.748000000
C     1.997000000    -0.929000000     3.996000000
C     1.823000000    -2.222000000     3.469000000
H     0.995000000    -2.860000000     3.769000000
C     2.769000000    -2.653000000     2.618000000
O     2.526000000    -3.917000000     2.083000000
C     3.926000000    -1.896000000     2.244000000
C     4.893000000    -2.415000000     1.243000000
H     5.849000000    -1.893000000     1.318000000
C     4.400000000    -2.228000000    -0.176000000
C     4.859000000    -1.037000000    -0.756000000
H     5.560000000    -0.347000000    -0.293000000
H     5.059000000    -3.458000000     1.521000000
C     4.071000000    -0.709000000     2.862000000
H     4.980000000    -0.140000000     2.678000000
C     3.180000000    -0.222000000     3.765000000
C     3.418000000     1.183000000     4.367000000
H     4.485000000     1.337000000     4.542000000
H     3.021000000     1.194000000     5.385000000
C     2.668000000     2.216000000     3.437000000
C     3.315000000     2.809000000     2.327000000
H     4.365000000     2.619000000     2.119000000
C     1.295000000     2.482000000     3.591000000
C     0.626000000     3.419000000     2.817000000
H    -0.423000000     3.626000000     3.015000000
C     1.293000000     3.952000000     1.725000000
O     0.485000000     4.775000000     0.880000000
C     0.103000000     4.104000000    -0.389000000
C    -1.410000000     4.339000000    -0.699000000
C    -1.893000000     4.258000000    -1.964000000
H    -1.175000000     3.999000000    -2.739000000
C    -2.280000000     4.688000000     0.337000000
H    -1.967000000     4.772000000     1.374000000
O     1.047000000     4.637000000    -1.423000000
H     0.224000000     3.013000000    -0.315000000
C     2.642000000     3.657000000     1.476000000
C     3.298000000     4.335000000     0.270000000
H     4.357000000     4.349000000     0.537000000
H     3.111000000     5.401000000     0.127000000
C     3.186000000     3.571000000    -1.000000000
C     4.082000000     2.542000000    -1.220000000
H     4.974000000     2.366000000    -0.625000000
C     2.065000000     3.734000000    -1.834000000
C     1.839000000     2.871000000    -2.910000000
H     0.930000000     2.975000000    -3.498000000
C     2.755000000     1.804000000    -3.150000000
O     2.447000000     1.057000000    -4.239000000
C     1.745000000    -0.116000000    -3.869000000
C     0.693000000    -0.455000000    -4.918000000
C     0.038000000     0.565000000    -5.561000000
H     0.411000000     1.586000000    -5.580000000
C     0.130000000    -1.733000000    -4.959000000
H     0.589000000    -2.565000000    -4.431000000
O     2.729000000    -1.110000000    -3.814000000
H     1.224000000    -0.128000000    -2.900000000
C     3.907000000     1.712000000    -2.358000000
C     4.885000000     0.619000000    -2.644000000
H     5.827000000     0.851000000    -2.143000000
H     4.979000000     0.488000000    -3.724000000
C     4.353000000    -0.652000000    -1.999000000
C     3.343000000    -1.443000000    -2.596000000
C     2.883000000    -2.652000000    -2.064000000
H     2.246000000    -3.345000000    -2.607000000
C     3.486000000    -3.019000000    -0.883000000
O     2.966000000    -4.159000000    -0.233000000
C     1.963000000    -3.940000000     0.757000000
H     1.495000000    -2.961000000     0.573000000
C     0.794000000    -4.918000000     0.637000000
C     0.199000000    -5.497000000     1.819000000
H     0.769000000    -5.470000000     2.744000000
C     0.174000000    -5.086000000    -0.597000000
H     0.629000000    -4.602000000    -1.457000000
C    -1.027000000    -5.817000000    -0.698000000
O    -1.608000000    -6.109000000    -1.868000000
C    -1.641000000    -6.350000000     0.430000000
H    -2.632000000    -6.774000000     0.294000000
C    -1.003000000    -6.188000000     1.677000000
O    -1.646000000    -6.590000000     2.842000000
C    -2.051000000    -5.718000000     3.899000000
C    -2.731000000    -4.524000000     3.697000000
H    -2.868000000    -4.212000000     2.664000000
C    -1.667000000    -6.148000000     5.172000000
H    -1.072000000    -7.054000000     5.261000000
C    -1.895000000    -5.280000000     6.298000000
H    -1.575000000    -5.526000000     7.308000000
C    -2.559000000    -4.099000000     6.046000000
H    -2.820000000    -3.426000000     6.859000000
C    -3.055000000    -3.735000000     4.827000000
O    -3.852000000    -2.572000000     4.669000000
C    -3.298000000    -1.227000000     4.713000000
C    -4.158000000    -0.111000000     4.841000000
H    -5.238000000    -0.178000000     4.946000000
C    -3.659000000     1.175000000     4.785000000
O    -4.523000000     2.302000000     4.893000000
C    -4.361000000     3.527000000     4.304000000
C    -4.633000000     3.626000000     2.920000000
H    -4.952000000     2.794000000     2.297000000
C    -3.898000000     4.626000000     5.033000000
H    -3.678000000     4.560000000     6.095000000
C    -3.677000000     5.863000000     4.451000000
H    -3.372000000     6.720000000     5.046000000
C    -3.873000000     5.941000000     3.064000000
H    -3.668000000     6.879000000     2.555000000
C    -4.403000000     4.877000000     2.339000000
O    -4.652000000     5.083000000     0.950000000
C    -3.665000000     4.861000000     0.023000000
C    -4.113000000     4.709000000    -1.307000000
H    -5.176000000     4.841000000    -1.492000000
C    -3.203000000     4.435000000    -2.347000000
O    -3.688000000     4.147000000    -3.634000000
C    -2.915000000     3.978000000    -4.742000000
C    -2.594000000     2.749000000    -5.177000000
H    -2.925000000     1.855000000    -4.655000000
C    -2.399000000     5.173000000    -5.337000000
H    -2.816000000     6.163000000    -5.175000000
C    -1.586000000     4.992000000    -6.485000000
H    -1.129000000     5.850000000    -6.971000000
C    -1.361000000     3.750000000    -7.047000000
H    -0.800000000     3.665000000    -7.975000000
C    -1.814000000     2.666000000    -6.349000000
O    -1.642000000     1.391000000    -6.885000000
C    -1.096000000     0.324000000    -6.221000000
C    -1.696000000    -0.954000000    -6.296000000
H    -2.541000000    -1.170000000    -6.945000000
C    -1.054000000    -1.974000000    -5.630000000
O    -1.549000000    -3.323000000    -5.750000000
C    -1.086000000    -4.367000000    -5.037000000
C    -0.004000000    -5.018000000    -5.547000000
H     0.495000000    -4.643000000    -6.437000000
C     0.532000000    -6.120000000    -4.868000000
H     1.344000000    -6.647000000    -5.363000000
C    -0.010000000    -6.504000000    -3.661000000
H     0.365000000    -7.407000000    -3.186000000
C    -1.036000000    -5.769000000    -3.087000000
C    -1.549000000    -4.638000000    -3.764000000
H    -2.405000000    -4.073000000    -3.405000000
C    -2.168000000    -2.173000000     0.143000000
H    -2.289000000    -3.238000000    -0.042000000
C    -1.124000000    -1.465000000    -0.387000000
H    -0.465000000    -2.036000000    -1.037000000
C    -0.987000000    -0.083000000    -0.083000000
H    -0.194000000     0.452000000    -0.583000000
C    -1.857000000     0.596000000     0.784000000
H    -1.745000000     1.661000000     0.970000000
C    -2.920000000    -0.225000000     1.288000000
H    -3.617000000     0.172000000     2.021000000
C    -3.178000000    -1.565000000     0.923000000
C    -4.548000000    -2.183000000     1.189000000
O    -5.353000000    -1.633000000     1.857000000
O    -4.884000000    -3.152000000     0.602000000
O    -7.565000000    -3.046000000    -0.580000000
H    -6.641000000    -2.852000000    -0.420000000
H    -7.716000000    -3.880000000    -0.134000000
O    -6.320000000    -4.620000000     2.265000000
H    -6.999000000    -3.986000000     2.496000000
H    -5.599000000    -4.087000000     1.928000000
O    -4.487000000     1.044000000    -1.533000000
H    -3.708000000     1.040000000    -0.977000000
H    -4.546000000     0.149000000    -1.868000000
O    -6.483000000     0.219000000    -0.121000000
H    -6.153000000    -0.568000000     0.312000000
H    -5.719000000     0.585000000    -0.567000000
O    -4.283000000    -4.509000000    -1.566000000
H    -4.391000000    -3.988000000    -0.770000000
H    -4.505000000    -5.401000000    -1.300000000
O    -7.507000000    -1.510000000     3.570000000
H    -8.143000000    -2.146000000     3.243000000
H    -6.719000000    -1.671000000     3.051000000
O    -7.599000000     0.596000000    -2.620000000
H    -7.344000000     0.293000000    -1.748000000
H    -8.472000000     0.227000000    -2.756000000
O    -6.363000000    -6.632000000     4.905000000
H    -6.586000000    -6.476000000     3.987000000
H    -6.035000000    -5.789000000     5.218000000
O    -8.864000000    -1.091000000     0.805000000
H    -8.584000000    -1.921000000     0.418000000
H    -8.172000000    -0.473000000     0.572000000
O    -6.399000000    -3.887000000     5.146000000
H    -5.569000000    -3.414000000     5.196000000
H    -6.495000000    -4.104000000     4.219000000
O    -4.794000000    -4.768000000    -4.161000000
H    -5.605000000    -4.271000000    -4.055000000
H    -4.470000000    -4.891000000    -3.269000000
O   -10.218000000     0.395000000     2.716000000
H   -11.030000000     0.239000000     2.234000000
H    -9.525000000     0.216000000     2.080000000
O    -6.965000000    -2.901000000    -3.502000000
H    -7.473000000    -2.551000000    -4.234000000
H    -7.500000000    -2.719000000    -2.730000000
O    -6.940000000    -1.248000000     6.389000000
H    -7.235000000    -1.634000000     5.565000000
H    -7.092000000    -0.309000000     6.281000000
O    -5.208000000    -6.946000000    -0.716000000
H    -4.855000000    -7.834000000    -0.766000000
H    -5.988000000    -7.028000000    -0.168000000
O    -9.038000000    -3.752000000     2.612000000
H    -9.815000000    -3.347000000     2.228000000
H    -9.239000000    -4.688000000     2.630000000
O    -4.657000000    -1.624000000    -2.476000000
H    -5.281000000    -1.940000000    -3.129000000
H    -4.304000000    -2.419000000    -2.077000000
O    -7.639000000    -7.577000000     0.387000000
H    -7.974000000    -7.080000000     1.134000000
H    -8.423000000    -7.902000000    -0.056000000
O    -6.886000000     1.201000000     2.697000000
H    -6.693000000     0.916000000     1.804000000
H    -7.509000000     0.554000000     3.026000000
