215
-1457.10826
C    -2.264000000    -1.297000000    -4.838000000
H    -1.715000000    -2.196000000    -5.108000000
C    -1.628000000    -0.102000000    -4.573000000
C    -2.434000000     1.012000000    -4.266000000
H    -1.996000000     1.970000000    -3.999000000
C    -0.131000000    -0.020000000    -4.381000000
O     0.548000000    -1.115000000    -4.957000000
H     0.017000000    -0.033000000    -3.292000000
O     0.380000000     1.264000000    -4.766000000
C     1.221000000     1.915000000    -3.869000000
C     0.737000000     3.023000000    -3.169000000
H    -0.303000000     3.320000000    -3.275000000
C     1.554000000     3.719000000    -2.256000000
O     1.027000000     4.630000000    -1.375000000
C     2.865000000     3.261000000    -2.065000000
C     3.855000000     3.896000000    -1.040000000
H     4.912000000     3.868000000    -1.314000000
C     3.658000000     3.179000000     0.247000000
C     4.473000000     2.079000000     0.493000000
H     5.203000000     1.679000000    -0.206000000
H     3.557000000     4.943000000    -0.949000000
C     3.336000000     2.167000000    -2.834000000
H     4.332000000     1.797000000    -2.605000000
C     2.565000000     1.511000000    -3.744000000
C     3.115000000     0.270000000    -4.521000000
H     4.201000000     0.379000000    -4.506000000
H     2.819000000     0.416000000    -5.562000000
C     2.686000000    -1.143000000    -3.943000000
C     3.616000000    -1.820000000    -3.174000000
H     4.566000000    -1.311000000    -3.032000000
C     1.490000000    -1.777000000    -4.237000000
C     1.187000000    -2.948000000    -3.524000000
H     0.221000000    -3.435000000    -3.625000000
C     1.994000000    -3.514000000    -2.565000000
O     1.603000000    -4.615000000    -1.795000000
C     1.239000000    -4.217000000    -0.426000000
C    -0.187000000    -4.643000000    -0.027000000
C    -0.663000000    -4.611000000     1.318000000
H     0.088000000    -4.358000000     2.062000000
C    -1.096000000    -4.953000000    -1.052000000
H    -0.779000000    -5.047000000    -2.088000000
O     2.204000000    -4.630000000     0.592000000
H     1.190000000    -3.118000000    -0.407000000
C     3.276000000    -2.952000000    -2.384000000
C     4.150000000    -3.582000000    -1.311000000
H     5.211000000    -3.392000000    -1.490000000
H     4.140000000    -4.674000000    -1.313000000
C     3.918000000    -3.000000000     0.111000000
C     4.550000000    -1.809000000     0.414000000
H     5.211000000    -1.277000000    -0.265000000
C     3.033000000    -3.631000000     1.009000000
C     2.809000000    -3.049000000     2.164000000
H     2.110000000    -3.507000000     2.860000000
C     3.520000000    -1.942000000     2.607000000
O     3.014000000    -1.299000000     3.751000000
C     2.143000000    -0.138000000     3.634000000
C     1.086000000    -0.108000000     4.719000000
C     0.618000000    -1.304000000     5.262000000
H     1.079000000    -2.258000000     5.020000000
C     0.462000000     1.039000000     5.134000000
H     0.656000000     2.018000000     4.704000000
O     2.923000000     1.017000000     3.739000000
H     1.762000000    -0.236000000     2.607000000
C     4.288000000    -1.190000000     1.662000000
C     5.065000000     0.018000000     1.994000000
H     5.982000000    -0.088000000     1.409000000
H     5.247000000     0.057000000     3.070000000
C     4.242000000     1.318000000     1.627000000
C     3.222000000     1.707000000     2.542000000
C     2.552000000     2.929000000     2.298000000
H     1.679000000     3.274000000     2.848000000
C     2.745000000     3.660000000     1.155000000
O     1.797000000     4.648000000     0.830000000
C     0.726000000     4.227000000    -0.041000000
H     0.616000000     3.148000000     0.143000000
C    -0.631000000     4.745000000     0.390000000
C    -1.599000000     4.951000000    -0.561000000
H    -1.306000000     4.773000000    -1.592000000
C    -0.870000000     4.968000000     1.710000000
H    -0.174000000     4.766000000     2.520000000
C    -2.065000000     5.500000000     2.124000000
O    -2.324000000     5.790000000     3.413000000
C    -3.073000000     5.712000000     1.143000000
H    -3.998000000     6.173000000     1.478000000
C    -2.828000000     5.440000000    -0.166000000
O    -3.844000000     5.608000000    -1.050000000
C    -3.765000000     5.125000000    -2.364000000
C    -3.940000000     3.738000000    -2.635000000
H    -3.820000000     2.996000000    -1.850000000
C    -3.659000000     6.121000000    -3.372000000
H    -3.264000000     7.094000000    -3.089000000
C    -3.990000000     5.717000000    -4.673000000
H    -3.970000000     6.477000000    -5.450000000
C    -4.362000000     4.329000000    -4.925000000
H    -4.579000000     3.973000000    -5.929000000
C    -4.193000000     3.367000000    -3.956000000
O    -4.555000000     2.080000000    -4.370000000
C    -3.811000000     0.948000000    -4.336000000
C    -4.440000000    -0.275000000    -4.593000000
H    -5.516000000    -0.426000000    -4.632000000
C    -3.643000000    -1.376000000    -4.678000000
O    -4.260000000    -2.511000000    -5.082000000
C    -3.774000000    -3.799000000    -4.791000000
C    -3.631000000    -4.098000000    -3.403000000
H    -3.991000000    -3.448000000    -2.609000000
C    -3.417000000    -4.711000000    -5.796000000
H    -3.465000000    -4.432000000    -6.845000000
C    -2.890000000    -5.919000000    -5.438000000
H    -2.597000000    -6.625000000    -6.211000000
C    -2.817000000    -6.262000000    -4.124000000
H    -2.387000000    -7.233000000    -3.895000000
C    -3.201000000    -5.388000000    -3.068000000
O    -3.212000000    -5.815000000    -1.754000000
C    -2.354000000    -5.422000000    -0.711000000
C    -2.856000000    -5.320000000     0.573000000
H    -3.876000000    -5.632000000     0.779000000
C    -1.954000000    -4.990000000     1.607000000
O    -2.408000000    -4.761000000     2.882000000
C    -1.584000000    -4.766000000     3.979000000
C    -1.759000000    -3.681000000     4.819000000
H    -2.371000000    -2.855000000     4.464000000
C    -0.660000000    -5.768000000     4.241000000
H    -0.536000000    -6.562000000     3.509000000
C     0.123000000    -5.709000000     5.407000000
H     0.647000000    -6.639000000     5.614000000
C    -0.075000000    -4.627000000     6.285000000
H     0.506000000    -4.581000000     7.202000000
C    -0.910000000    -3.593000000     5.959000000
O    -0.929000000    -2.498000000     6.703000000
C    -0.468000000    -1.360000000     6.182000000
C    -1.055000000    -0.174000000     6.651000000
H    -1.917000000    -0.111000000     7.310000000
C    -0.613000000     1.018000000     6.054000000
O    -1.340000000     2.155000000     6.305000000
C    -1.042000000     3.417000000     5.946000000
C    -0.118000000     4.259000000     6.658000000
H     0.358000000     3.908000000     7.570000000
C     0.060000000     5.566000000     6.245000000
H     0.797000000     6.159000000     6.780000000
C    -0.676000000     6.033000000     5.134000000
H    -0.471000000     7.051000000     4.814000000
C    -1.611000000     5.237000000     4.480000000
C    -1.780000000     3.902000000     4.858000000
H    -2.429000000     3.234000000     4.298000000
C    -2.247000000    -1.708000000     0.844000000
H    -2.743000000    -2.501000000     1.398000000
C    -0.946000000    -1.242000000     1.263000000
H    -0.467000000    -1.746000000     2.099000000
C    -0.289000000    -0.346000000     0.463000000
H     0.752000000    -0.014000000     0.695000000
C    -0.952000000     0.263000000    -0.577000000
H    -0.429000000     1.073000000    -1.079000000
C    -2.262000000    -0.080000000    -0.957000000
H    -2.714000000     0.261000000    -1.884000000
C    -2.913000000    -1.173000000    -0.296000000
C    -4.246000000    -1.704000000    -0.753000000
O    -4.859000000    -1.197000000    -1.645000000
O    -4.740000000    -2.640000000    -0.093000000
O    -8.185000000    -4.803000000    -3.212000000
H    -7.986000000    -5.178000000    -4.070000000
H    -7.615000000    -4.036000000    -3.148000000
O    -6.380000000     1.096000000     3.919000000
H    -5.811000000     0.350000000     3.728000000
H    -6.607000000     0.994000000     4.843000000
O    -6.139000000    -5.364000000    -0.225000000
H    -5.598000000    -4.845000000    -0.820000000
H    -5.933000000    -5.022000000     0.645000000
O    -5.964000000    -6.913000000     2.638000000
H    -5.501000000    -6.096000000     2.450000000
H    -5.280000000    -7.583000000     2.625000000
O    -5.561000000    -8.033000000    -1.131000000
H    -5.449000000    -7.131000000    -0.833000000
H    -5.732000000    -8.530000000    -0.331000000
O    -6.417000000     1.343000000    -1.060000000
H    -7.041000000     1.119000000    -0.370000000
H    -6.039000000     0.504000000    -1.323000000
O    -6.882000000    -2.478000000    -2.555000000
H    -6.153000000    -1.928000000    -2.268000000
H    -7.658000000    -1.931000000    -2.431000000
O    -7.903000000     0.847000000     1.378000000
H    -7.906000000    -0.096000000     1.214000000
H    -7.724000000     0.927000000     2.315000000
O    -3.392000000     1.611000000     2.428000000
H    -3.221000000     0.880000000     3.021000000
H    -3.246000000     1.250000000     1.554000000
O    -5.243000000    -2.252000000     5.317000000
H    -5.508000000    -3.172000000     5.331000000
H    -5.248000000    -2.015000000     4.390000000
O    -9.236000000    -4.236000000     0.415000000
H    -8.859000000    -4.325000000     1.290000000
H    -8.885000000    -4.980000000    -0.075000000
O    -8.092000000    -4.177000000     3.010000000
H    -7.200000000    -4.505000000     3.123000000
H    -8.096000000    -3.333000000     3.463000000
O    -9.152000000    -1.050000000    -1.866000000
H    -9.776000000    -1.415000000    -1.238000000
H    -9.164000000    -0.108000000    -1.695000000
O    -7.670000000     3.648000000    -1.851000000
H    -7.299000000     2.792000000    -1.641000000
H    -7.489000000     4.184000000    -1.079000000
O    -5.529000000    -1.184000000     2.527000000
H    -6.426000000    -1.519000000     2.533000000
H    -5.368000000    -0.947000000     1.613000000
O    -7.189000000     2.090000000    -4.241000000
H    -7.283000000     2.974000000    -3.885000000
H    -6.243000000     1.950000000    -4.288000000
O    -7.609000000    -1.753000000     0.482000000
H    -6.850000000    -2.017000000    -0.038000000
H    -8.315000000    -2.327000000     0.183000000
O    -5.404000000    -4.172000000     2.207000000
H    -4.657000000    -3.990000000     2.777000000
H    -5.307000000    -3.556000000     1.481000000
O    -5.296000000     3.383000000     2.861000000
H    -4.530000000     2.952000000     2.481000000
H    -5.832000000     2.665000000     3.198000000
