215
-1448.14986
C    -1.839000000     0.014000000     5.166000000
H    -1.413000000     0.989000000     5.387000000
C    -1.039000000    -0.963000000     4.602000000
C    -1.701000000    -2.177000000     4.213000000
H    -1.166000000    -2.910000000     3.614000000
C     0.447000000    -0.741000000     4.393000000
O     0.930000000     0.362000000     5.113000000
H     0.451000000    -0.578000000     3.305000000
O     1.191000000    -1.950000000     4.525000000
C     2.078000000    -2.230000000     3.595000000
C     1.690000000    -3.257000000     2.758000000
H     0.833000000    -3.902000000     2.932000000
C     2.432000000    -3.584000000     1.637000000
O     1.867000000    -4.461000000     0.730000000
C     3.683000000    -2.932000000     1.442000000
C     4.616000000    -3.284000000     0.228000000
H     5.690000000    -3.096000000     0.289000000
C     4.247000000    -2.343000000    -0.920000000
C     4.883000000    -1.142000000    -1.284000000
H     5.671000000    -0.758000000    -0.642000000
H     4.470000000    -4.318000000    -0.089000000
C     4.060000000    -1.884000000     2.338000000
H     4.991000000    -1.366000000     2.123000000
C     3.286000000    -1.519000000     3.430000000
C     3.715000000    -0.334000000     4.328000000
H     4.790000000    -0.162000000     4.253000000
H     3.525000000    -0.606000000     5.369000000
C     3.007000000     0.991000000     3.975000000
C     3.648000000     1.910000000     3.087000000
H     4.656000000     1.773000000     2.704000000
C     1.696000000     1.254000000     4.445000000
C     1.007000000     2.357000000     3.879000000
H    -0.022000000     2.567000000     4.155000000
C     1.653000000     3.233000000     2.954000000
O     0.915000000     4.281000000     2.427000000
C     0.459000000     4.139000000     1.069000000
C    -1.001000000     4.480000000     0.906000000
C    -1.371000000     5.100000000    -0.291000000
H    -0.534000000     5.288000000    -0.958000000
C    -2.016000000     4.090000000     1.840000000
H    -1.760000000     3.509000000     2.723000000
O     1.364000000     4.849000000     0.201000000
H     0.652000000     3.103000000     0.755000000
C     2.959000000     2.966000000     2.622000000
C     3.648000000     3.905000000     1.648000000
H     4.729000000     3.865000000     1.800000000
H     3.298000000     4.933000000     1.768000000
C     3.397000000     3.563000000     0.200000000
C     4.167000000     2.629000000    -0.463000000
H     5.059000000     2.173000000    -0.041000000
C     2.289000000     4.054000000    -0.478000000
C     2.047000000     3.664000000    -1.766000000
H     1.196000000     4.118000000    -2.268000000
C     2.834000000     2.680000000    -2.394000000
O     2.414000000     2.281000000    -3.598000000
C     1.802000000     0.986000000    -3.696000000
C     0.551000000     0.981000000    -4.610000000
C    -0.411000000     1.963000000    -4.529000000
H    -0.326000000     2.737000000    -3.771000000
C     0.250000000    -0.105000000    -5.413000000
H     0.934000000    -0.950000000    -5.396000000
O     2.724000000    -0.054000000    -4.139000000
H     1.450000000     0.602000000    -2.727000000
C     3.949000000     2.172000000    -1.731000000
C     4.824000000     1.196000000    -2.490000000
H     5.798000000     1.415000000    -2.048000000
H     4.828000000     1.454000000    -3.551000000
C     4.438000000    -0.316000000    -2.311000000
C     3.439000000    -0.820000000    -3.251000000
C     2.859000000    -2.020000000    -2.910000000
H     2.014000000    -2.425000000    -3.460000000
C     3.222000000    -2.733000000    -1.774000000
O     2.533000000    -3.908000000    -1.522000000
C     1.430000000    -3.854000000    -0.525000000
H     1.191000000    -2.802000000    -0.309000000
C     0.148000000    -4.515000000    -1.020000000
C    -0.855000000    -4.847000000    -0.125000000
H    -0.718000000    -4.644000000     0.934000000
C    -0.125000000    -4.725000000    -2.401000000
H     0.676000000    -4.585000000    -3.123000000
C    -1.322000000    -5.196000000    -2.879000000
O    -1.572000000    -5.360000000    -4.184000000
C    -2.197000000    -5.772000000    -1.985000000
H    -3.097000000    -6.312000000    -2.269000000
C    -1.980000000    -5.476000000    -0.621000000
O    -3.023000000    -5.986000000     0.170000000
C    -2.984000000    -5.902000000     1.522000000
C    -3.315000000    -4.698000000     2.217000000
H    -3.601000000    -3.903000000     1.534000000
C    -2.496000000    -6.984000000     2.311000000
H    -2.151000000    -7.857000000     1.763000000
C    -2.635000000    -6.975000000     3.689000000
H    -2.333000000    -7.833000000     4.284000000
C    -3.052000000    -5.803000000     4.337000000
H    -3.105000000    -5.825000000     5.423000000
C    -3.414000000    -4.667000000     3.592000000
O    -3.779000000    -3.451000000     4.136000000
C    -3.052000000    -2.330000000     4.514000000
C    -3.799000000    -1.363000000     5.155000000
H    -4.821000000    -1.514000000     5.494000000
C    -3.180000000    -0.178000000     5.397000000
O    -3.920000000     0.832000000     5.977000000
C    -3.965000000     2.084000000     5.474000000
C    -4.248000000     2.342000000     4.154000000
H    -4.331000000     1.557000000     3.407000000
C    -3.819000000     3.079000000     6.419000000
H    -3.841000000     2.816000000     7.474000000
C    -4.095000000     4.433000000     5.976000000
H    -4.131000000     5.166000000     6.778000000
C    -4.263000000     4.647000000     4.635000000
H    -4.191000000     5.665000000     4.260000000
C    -4.294000000     3.606000000     3.696000000
O    -4.359000000     3.951000000     2.414000000
C    -3.346000000     4.484000000     1.634000000
C    -3.649000000     5.166000000     0.443000000
H    -4.683000000     5.485000000     0.341000000
C    -2.683000000     5.555000000    -0.469000000
O    -3.095000000     6.248000000    -1.608000000
C    -2.779000000     5.891000000    -2.930000000
C    -2.754000000     4.573000000    -3.353000000
H    -3.201000000     3.859000000    -2.667000000
C    -2.119000000     6.803000000    -3.738000000
H    -1.958000000     7.786000000    -3.304000000
C    -1.449000000     6.385000000    -4.912000000
H    -0.927000000     7.098000000    -5.546000000
C    -1.668000000     5.140000000    -5.448000000
H    -1.531000000     4.880000000    -6.494000000
C    -2.321000000     4.207000000    -4.653000000
O    -2.542000000     2.934000000    -5.165000000
C    -1.517000000     1.971000000    -5.375000000
C    -1.798000000     0.829000000    -6.165000000
H    -2.731000000     0.884000000    -6.722000000
C    -0.893000000    -0.196000000    -6.177000000
O    -1.164000000    -1.374000000    -6.820000000
C    -0.634000000    -2.619000000    -6.511000000
C     0.436000000    -3.199000000    -7.219000000
H     1.104000000    -2.588000000    -7.821000000
C     0.900000000    -4.487000000    -6.840000000
H     1.788000000    -4.872000000    -7.334000000
C     0.133000000    -5.268000000    -5.906000000
H     0.471000000    -6.262000000    -5.627000000
C    -0.898000000    -4.657000000    -5.176000000
C    -1.335000000    -3.370000000    -5.510000000
H    -2.157000000    -2.849000000    -5.025000000
C    -2.180000000    -1.230000000    -0.821000000
H    -2.686000000    -1.853000000    -1.554000000
C    -0.889000000    -0.773000000    -1.150000000
H    -0.417000000    -1.079000000    -2.081000000
C    -0.147000000     0.046000000    -0.295000000
H     0.884000000     0.216000000    -0.653000000
C    -0.642000000     0.361000000     0.955000000
H    -0.088000000     1.027000000     1.611000000
C    -1.986000000    -0.059000000     1.308000000
H    -2.282000000     0.397000000     2.249000000
C    -2.704000000    -0.839000000     0.399000000
C    -4.141000000    -1.258000000     0.660000000
O    -4.826000000    -0.680000000     1.478000000
O    -4.654000000    -2.190000000     0.073000000
O   -10.178000000     0.685000000     1.993000000
H   -10.048000000     0.984000000     1.093000000
H    -9.349000000     0.267000000     2.228000000
O    -7.185000000    -1.769000000    -0.400000000
H    -6.310000000    -1.887000000    -0.031000000
H    -7.738000000    -2.371000000     0.099000000
O    -2.992000000     1.525000000    -1.866000000
H    -2.298000000     1.161000000    -1.317000000
H    -3.775000000     1.493000000    -1.316000000
O    -7.256000000     0.921000000    -0.988000000
H    -7.274000000    -0.003000000    -0.739000000
H    -6.550000000     1.297000000    -0.462000000
O    -4.873000000     1.822000000     0.436000000
H    -4.633000000     1.073000000     0.982000000
H    -4.816000000     2.575000000     1.025000000
O    -7.234000000    -4.573000000    -3.210000000
H    -7.799000000    -4.618000000    -2.439000000
H    -6.879000000    -5.458000000    -3.298000000
O    -6.911000000    -2.539000000    -4.942000000
H    -7.174000000    -3.388000000    -4.588000000
H    -5.986000000    -2.458000000    -4.711000000
O    -7.390000000    -5.795000000     3.173000000
H    -6.888000000    -5.657000000     3.976000000
H    -6.770000000    -6.204000000     2.569000000
O    -6.186000000    -2.754000000     2.667000000
H    -5.676000000    -2.901000000     3.464000000
H    -5.673000000    -2.119000000     2.168000000
O    -7.303000000     2.021000000    -3.424000000
H    -7.502000000     1.424000000    -2.702000000
H    -6.561000000     1.616000000    -3.873000000
O    -4.903000000     1.048000000    -4.060000000
H    -4.204000000     1.654000000    -3.814000000
H    -4.694000000     0.240000000    -3.592000000
O    -7.316000000     2.833000000     2.114000000
H    -7.295000000     3.229000000     2.985000000
H    -7.307000000     1.891000000     2.278000000
O    -6.190000000    -4.987000000     0.286000000
H    -5.434000000    -5.152000000     0.848000000
H    -6.055000000    -4.099000000    -0.045000000
O    -9.843000000     1.858000000    -0.520000000
H    -8.937000000     1.670000000    -0.765000000
H   -10.261000000     2.129000000    -1.338000000
O    -5.237000000    -2.424000000    -2.419000000
H    -6.144000000    -2.687000000    -2.263000000
H    -4.882000000    -2.259000000    -1.545000000
O    -8.977000000    -3.551000000     3.807000000
H    -8.300000000    -4.162000000     3.518000000
H    -8.495000000    -2.841000000     4.231000000
O    -7.365000000     0.077000000     2.677000000
H    -7.308000000    -0.545000000     3.402000000
H    -6.630000000    -0.149000000     2.108000000
O    -8.789000000    -3.969000000     1.014000000
H    -9.206000000    -3.840000000     1.866000000
H    -7.959000000    -4.401000000     1.217000000
O    -4.262000000    -4.544000000    -5.576000000
H    -3.306000000    -4.604000000    -5.567000000
H    -4.488000000    -4.201000000    -4.711000000
