215
-1444.41083
C    -1.829000000     0.935000000     4.402000000
H    -1.428000000     1.826000000     3.926000000
C    -0.987000000    -0.133000000     4.601000000
C    -1.477000000    -1.329000000     5.081000000
H    -0.758000000    -2.117000000     5.291000000
C     0.473000000     0.042000000     4.304000000
O     1.040000000     1.255000000     4.661000000
H     0.690000000    -0.082000000     3.233000000
O     1.207000000    -1.023000000     4.932000000
C     2.039000000    -1.693000000     4.085000000
C     1.609000000    -2.840000000     3.457000000
H     0.630000000    -3.239000000     3.707000000
C     2.423000000    -3.494000000     2.454000000
O     1.870000000    -4.582000000     1.762000000
C     3.579000000    -2.798000000     1.984000000
C     4.310000000    -3.294000000     0.777000000
H     5.314000000    -2.870000000     0.852000000
C     3.779000000    -2.690000000    -0.466000000
C     4.452000000    -1.618000000    -1.096000000
H     5.372000000    -1.234000000    -0.663000000
H     4.332000000    -4.384000000     0.840000000
C     3.994000000    -1.658000000     2.597000000
H     4.900000000    -1.217000000     2.191000000
C     3.276000000    -1.095000000     3.628000000
C     3.729000000     0.258000000     4.304000000
H     4.813000000     0.301000000     4.430000000
H     3.282000000     0.199000000     5.299000000
C     3.160000000     1.514000000     3.573000000
C     3.936000000     2.081000000     2.528000000
H     4.913000000     1.624000000     2.388000000
C     1.858000000     1.911000000     3.752000000
C     1.375000000     3.003000000     3.082000000
H     0.305000000     3.169000000     3.183000000
C     2.106000000     3.574000000     2.044000000
O     1.371000000     4.462000000     1.254000000
C     0.985000000     4.137000000    -0.059000000
C    -0.383000000     4.746000000    -0.565000000
C    -0.474000000     5.407000000    -1.737000000
H     0.415000000     5.755000000    -2.258000000
C    -1.478000000     4.374000000     0.204000000
H    -1.339000000     3.748000000     1.081000000
O     2.005000000     4.692000000    -0.953000000
H     0.958000000     3.037000000    -0.084000000
C     3.436000000     3.144000000     1.751000000
C     4.216000000     3.756000000     0.607000000
H     5.276000000     3.602000000     0.819000000
H     3.959000000     4.816000000     0.664000000
C     3.881000000     3.172000000    -0.776000000
C     4.527000000     2.055000000    -1.240000000
H     5.220000000     1.479000000    -0.634000000
C     2.812000000     3.739000000    -1.485000000
C     2.359000000     3.078000000    -2.686000000
H     1.511000000     3.523000000    -3.200000000
C     2.962000000     1.897000000    -3.165000000
O     2.462000000     1.212000000    -4.178000000
C     1.629000000     0.087000000    -3.820000000
C     0.306000000     0.146000000    -4.532000000
C    -0.182000000     1.259000000    -5.179000000
H     0.453000000     2.139000000    -5.238000000
C    -0.578000000    -0.955000000    -4.425000000
H    -0.267000000    -1.918000000    -4.030000000
O     2.408000000    -1.080000000    -4.081000000
H     1.351000000     0.243000000    -2.767000000
C     4.075000000     1.322000000    -2.392000000
C     4.772000000     0.064000000    -2.821000000
H     5.807000000     0.134000000    -2.480000000
H     4.852000000     0.019000000    -3.910000000
C     3.999000000    -1.158000000    -2.311000000
C     2.903000000    -1.657000000    -2.924000000
C     2.212000000    -2.714000000    -2.363000000
H     1.339000000    -3.142000000    -2.850000000
C     2.661000000    -3.279000000    -1.126000000
O     1.969000000    -4.382000000    -0.614000000
C     1.135000000    -4.334000000     0.569000000
H     0.824000000    -3.282000000     0.649000000
C    -0.207000000    -5.063000000     0.435000000
C    -1.019000000    -5.219000000     1.588000000
H    -0.661000000    -4.928000000     2.573000000
C    -0.791000000    -5.325000000    -0.814000000
H    -0.119000000    -5.111000000    -1.641000000
C    -2.043000000    -5.762000000    -0.987000000
O    -2.470000000    -6.091000000    -2.275000000
C    -2.890000000    -5.959000000     0.149000000
H    -3.971000000    -6.051000000     0.084000000
C    -2.344000000    -5.682000000     1.418000000
O    -3.228000000    -5.778000000     2.498000000
C    -2.858000000    -5.412000000     3.831000000
C    -3.070000000    -4.075000000     4.237000000
H    -3.547000000    -3.346000000     3.588000000
C    -2.489000000    -6.421000000     4.702000000
H    -2.243000000    -7.404000000     4.308000000
C    -2.267000000    -6.077000000     6.037000000
H    -1.935000000    -6.901000000     6.664000000
C    -2.548000000    -4.780000000     6.565000000
H    -2.478000000    -4.592000000     7.633000000
C    -2.902000000    -3.777000000     5.650000000
O    -3.298000000    -2.548000000     6.062000000
C    -2.835000000    -1.455000000     5.405000000
C    -3.633000000    -0.332000000     5.388000000
H    -4.597000000    -0.456000000     5.875000000
C    -3.185000000     0.868000000     4.885000000
O    -3.972000000     1.964000000     4.800000000
C    -3.740000000     3.020000000     3.970000000
C    -3.942000000     3.086000000     2.631000000
H    -4.371000000     2.171000000     2.231000000
C    -3.355000000     4.200000000     4.627000000
H    -3.171000000     4.221000000     5.698000000
C    -2.998000000     5.335000000     3.879000000
H    -2.705000000     6.276000000     4.337000000
C    -3.264000000     5.378000000     2.471000000
H    -3.052000000     6.330000000     1.990000000
C    -3.698000000     4.238000000     1.838000000
O    -3.897000000     4.237000000     0.446000000
C    -2.755000000     4.694000000    -0.249000000
C    -2.821000000     5.298000000    -1.488000000
H    -3.739000000     5.816000000    -1.753000000
C    -1.731000000     5.641000000    -2.216000000
O    -1.913000000     6.293000000    -3.423000000
C    -1.862000000     5.724000000    -4.639000000
C    -1.958000000     4.331000000    -4.847000000
H    -2.222000000     3.657000000    -4.035000000
C    -1.616000000     6.522000000    -5.748000000
H    -1.439000000     7.573000000    -5.536000000
C    -1.353000000     5.993000000    -7.015000000
H    -1.217000000     6.687000000    -7.840000000
C    -1.450000000     4.616000000    -7.190000000
H    -1.355000000     4.142000000    -8.164000000
C    -1.742000000     3.794000000    -6.121000000
O    -1.912000000     2.414000000    -6.439000000
C    -1.508000000     1.278000000    -5.715000000
C    -2.375000000     0.270000000    -5.531000000
H    -3.367000000     0.334000000    -5.970000000
C    -1.871000000    -0.879000000    -4.920000000
O    -2.738000000    -2.007000000    -4.908000000
C    -2.264000000    -3.284000000    -4.789000000
C    -1.292000000    -3.784000000    -5.643000000
H    -1.045000000    -3.163000000    -6.500000000
C    -0.852000000    -5.115000000    -5.413000000
H    -0.164000000    -5.576000000    -6.116000000
C    -1.178000000    -5.800000000    -4.233000000
H    -0.812000000    -6.818000000    -4.124000000
C    -2.144000000    -5.311000000    -3.361000000
C    -2.660000000    -4.077000000    -3.667000000
H    -3.439000000    -3.651000000    -3.040000000
C    -2.129000000    -2.107000000    -0.412000000
H    -2.474000000    -2.939000000    -1.021000000
C    -0.872000000    -1.514000000    -0.576000000
H    -0.288000000    -1.872000000    -1.420000000
C    -0.428000000    -0.421000000     0.090000000
H     0.725000000    -0.248000000     0.051000000
C    -1.356000000     0.159000000     1.021000000
H    -1.006000000     1.068000000     1.504000000
C    -2.573000000    -0.454000000     1.291000000
H    -3.195000000    -0.082000000     2.102000000
C    -2.966000000    -1.621000000     0.614000000
C    -4.226000000    -2.315000000     1.040000000
O    -4.851000000    -1.824000000     1.931000000
O    -4.635000000    -3.308000000     0.487000000
O    -9.121000000    -2.687000000    -0.822000000
H    -9.750000000    -3.060000000    -0.204000000
H    -9.467000000    -1.816000000    -1.018000000
O    -5.126000000    -8.677000000     1.091000000
H    -5.551000000    -9.521000000     1.241000000
H    -5.634000000    -8.056000000     1.612000000
O    -6.374000000    -5.108000000     1.162000000
H    -6.727000000    -5.489000000     0.358000000
H    -5.749000000    -4.448000000     0.860000000
O    -2.740000000     1.591000000    -1.266000000
H    -2.057000000     1.087000000    -0.823000000
H    -2.652000000     2.476000000    -0.913000000
O    -9.189000000     0.721000000     4.133000000
H    -9.116000000     1.675000000     4.167000000
H    -8.323000000     0.425000000     3.854000000
O    -6.592000000    -0.308000000     0.177000000
H    -6.319000000    -1.027000000     0.747000000
H    -5.810000000    -0.095000000    -0.332000000
O    -6.323000000    -3.120000000    -1.716000000
H    -5.511000000    -3.155000000    -1.211000000
H    -6.980000000    -2.808000000    -1.093000000
O    -6.249000000    -7.996000000    -1.508000000
H    -6.563000000    -7.125000000    -1.266000000
H    -5.785000000    -8.308000000    -0.731000000
O    -6.808000000    -3.231000000     3.221000000
H    -6.828000000    -3.982000000     2.628000000
H    -6.204000000    -2.615000000     2.807000000
O    -9.919000000    -2.986000000     3.215000000
H   -10.313000000    -3.255000000     4.045000000
H    -8.979000000    -3.105000000     3.347000000
O    -6.704000000     1.528000000    -2.820000000
H    -6.160000000     1.008000000    -2.228000000
H    -7.567000000     1.117000000    -2.776000000
O    -6.166000000    -7.042000000     3.062000000
H    -5.754000000    -6.249000000     2.720000000
H    -6.732000000    -6.732000000     3.769000000
O    -6.190000000     0.290000000     3.528000000
H    -5.899000000    -0.440000000     2.982000000
H    -6.393000000    -0.109000000     4.374000000
O    -7.025000000    -1.728000000    -4.078000000
H    -6.796000000    -2.231000000    -3.297000000
H    -7.868000000    -1.328000000    -3.867000000
O    -7.647000000     1.648000000     1.427000000
H    -6.943000000     1.627000000     2.075000000
H    -7.407000000     0.974000000     0.791000000
O    -5.841000000    -4.100000000     6.417000000
H    -5.988000000    -3.889000000     5.495000000
H    -5.255000000    -4.856000000     6.399000000
O    -7.546000000    -5.669000000    -1.811000000
H    -7.437000000    -5.845000000    -2.745000000
H    -7.925000000    -4.790000000    -1.776000000
O    -4.683000000    -0.159000000    -1.620000000
H    -4.346000000    -0.714000000    -2.323000000
H    -3.946000000     0.405000000    -1.386000000
O    -6.782000000    -0.813000000     6.087000000
H    -6.396000000    -1.493000000     6.639000000
H    -6.667000000    -0.004000000     6.586000000
