215
-1460.32341
C    -1.189000000     1.646000000     4.850000000
H    -0.704000000     2.502000000     4.388000000
C    -0.436000000     0.425000000     4.839000000
C    -1.026000000    -0.775000000     5.158000000
H    -0.430000000    -1.683000000     5.157000000
C     0.995000000     0.503000000     4.247000000
O     1.659000000     1.693000000     4.548000000
H     0.939000000     0.266000000     3.174000000
O     1.875000000    -0.546000000     4.723000000
C     2.649000000    -1.195000000     3.795000000
C     2.210000000    -2.437000000     3.340000000
H     1.313000000    -2.840000000     3.805000000
C     2.822000000    -3.003000000     2.247000000
O     2.148000000    -4.084000000     1.766000000
C     3.983000000    -2.529000000     1.684000000
C     4.674000000    -3.317000000     0.539000000
H     5.730000000    -3.043000000     0.561000000
C     4.070000000    -2.854000000    -0.767000000
C     4.600000000    -1.818000000    -1.490000000
H     5.519000000    -1.471000000    -1.025000000
H     4.506000000    -4.382000000     0.708000000
C     4.468000000    -1.303000000     2.234000000
H     5.314000000    -0.800000000     1.774000000
C     3.812000000    -0.637000000     3.322000000
C     4.301000000     0.703000000     3.738000000
H     5.369000000     0.683000000     3.509000000
H     4.155000000     0.854000000     4.810000000
C     3.579000000     1.880000000     3.083000000
C     4.200000000     2.385000000     1.947000000
H     5.220000000     2.138000000     1.663000000
C     2.284000000     2.270000000     3.506000000
C     1.652000000     3.274000000     2.745000000
H     0.658000000     3.624000000     3.009000000
C     2.249000000     3.740000000     1.567000000
O     1.433000000     4.553000000     0.844000000
C     0.729000000     4.108000000    -0.363000000
C    -0.740000000     4.558000000    -0.454000000
C    -1.442000000     4.329000000    -1.596000000
H    -0.998000000     3.763000000    -2.411000000
C    -1.462000000     5.002000000     0.640000000
H    -0.976000000     5.057000000     1.610000000
O     1.531000000     4.558000000    -1.490000000
H     0.683000000     3.009000000    -0.335000000
C     3.514000000     3.275000000     1.133000000
C     4.131000000     3.891000000    -0.093000000
H     5.222000000     3.850000000    -0.088000000
H     3.927000000     4.955000000    -0.237000000
C     3.571000000     3.204000000    -1.333000000
C     4.280000000     2.052000000    -1.836000000
H     5.130000000     1.704000000    -1.254000000
C     2.390000000     3.554000000    -1.969000000
C     1.841000000     2.710000000    -2.931000000
H     0.844000000     2.867000000    -3.336000000
C     2.518000000     1.570000000    -3.378000000
O     1.858000000     0.828000000    -4.241000000
C     1.131000000    -0.312000000    -3.812000000
C    -0.204000000    -0.414000000    -4.527000000
C    -0.740000000     0.667000000    -5.263000000
H    -0.135000000     1.555000000    -5.421000000
C    -0.865000000    -1.657000000    -4.524000000
H    -0.311000000    -2.563000000    -4.292000000
O     2.031000000    -1.484000000    -4.110000000
H     0.934000000    -0.241000000    -2.732000000
C     3.782000000     1.192000000    -2.814000000
C     4.460000000    -0.017000000    -3.327000000
H     5.520000000     0.171000000    -3.145000000
H     4.395000000    -0.212000000    -4.399000000
C     3.926000000    -1.309000000    -2.657000000
C     2.803000000    -1.969000000    -3.110000000
C     2.307000000    -3.094000000    -2.396000000
H     1.415000000    -3.638000000    -2.696000000
C     2.940000000    -3.477000000    -1.265000000
O     2.249000000    -4.394000000    -0.581000000
C     1.413000000    -3.881000000     0.539000000
H     1.089000000    -2.848000000     0.344000000
C     0.074000000    -4.543000000     0.402000000
C    -0.776000000    -4.519000000     1.482000000
H    -0.563000000    -4.108000000     2.466000000
C    -0.329000000    -5.238000000    -0.782000000
H     0.347000000    -5.235000000    -1.633000000
C    -1.608000000    -5.775000000    -0.921000000
O    -1.999000000    -6.351000000    -2.042000000
C    -2.422000000    -5.793000000     0.184000000
H    -3.439000000    -6.176000000     0.138000000
C    -2.010000000    -5.140000000     1.375000000
O    -2.894000000    -5.070000000     2.417000000
C    -2.599000000    -4.760000000     3.679000000
C    -2.856000000    -3.476000000     4.126000000
H    -3.150000000    -2.714000000     3.408000000
C    -2.255000000    -5.786000000     4.587000000
H    -2.102000000    -6.786000000     4.189000000
C    -2.233000000    -5.496000000     5.917000000
H    -2.198000000    -6.298000000     6.650000000
C    -2.484000000    -4.208000000     6.409000000
H    -2.611000000    -4.035000000     7.475000000
C    -2.671000000    -3.157000000     5.467000000
O    -2.957000000    -1.950000000     6.066000000
C    -2.349000000    -0.757000000     5.700000000
C    -3.048000000     0.469000000     5.732000000
H    -4.086000000     0.461000000     6.055000000
C    -2.494000000     1.640000000     5.286000000
O    -3.249000000     2.770000000     5.401000000
C    -2.887000000     3.892000000     4.786000000
C    -3.347000000     4.146000000     3.499000000
H    -3.876000000     3.417000000     2.891000000
C    -2.215000000     4.892000000     5.511000000
H    -2.024000000     4.852000000     6.580000000
C    -1.986000000     6.118000000     4.949000000
H    -1.551000000     6.995000000     5.421000000
C    -2.500000000     6.442000000     3.693000000
H    -2.327000000     7.395000000     3.201000000
C    -3.092000000     5.427000000     2.966000000
O    -3.547000000     5.777000000     1.680000000
C    -2.746000000     5.484000000     0.560000000
C    -3.380000000     5.394000000    -0.661000000
H    -4.433000000     5.648000000    -0.750000000
C    -2.764000000     4.724000000    -1.758000000
O    -3.565000000     4.517000000    -2.860000000
C    -3.054000000     4.259000000    -4.135000000
C    -3.089000000     2.966000000    -4.615000000
H    -3.495000000     2.138000000    -4.039000000
C    -2.687000000     5.276000000    -4.941000000
H    -2.553000000     6.326000000    -4.694000000
C    -2.216000000     5.065000000    -6.244000000
H    -1.805000000     5.914000000    -6.785000000
C    -2.267000000     3.819000000    -6.820000000
H    -2.060000000     3.718000000    -7.883000000
C    -2.654000000     2.772000000    -5.973000000
O    -2.587000000     1.534000000    -6.563000000
C    -2.039000000     0.517000000    -5.797000000
C    -2.752000000    -0.666000000    -5.708000000
H    -3.741000000    -0.832000000    -6.128000000
C    -2.122000000    -1.790000000    -5.137000000
O    -2.873000000    -2.918000000    -5.138000000
C    -2.553000000    -4.199000000    -4.958000000
C    -2.253000000    -5.076000000    -5.981000000
H    -2.379000000    -4.801000000    -7.025000000
C    -1.954000000    -6.376000000    -5.635000000
H    -1.658000000    -7.061000000    -6.425000000
C    -2.009000000    -6.810000000    -4.347000000
H    -1.925000000    -7.872000000    -4.128000000
C    -2.075000000    -5.882000000    -3.337000000
C    -2.539000000    -4.583000000    -3.591000000
H    -2.771000000    -3.849000000    -2.824000000
C    -1.632000000    -1.370000000    -0.739000000
H    -2.009000000    -2.097000000    -1.453000000
C    -0.295000000    -0.961000000    -0.654000000
H     0.389000000    -1.478000000    -1.322000000
C     0.180000000     0.031000000     0.244000000
H     1.214000000     0.319000000     0.207000000
C    -0.763000000     0.670000000     1.052000000
H    -0.524000000     1.456000000     1.763000000
C    -2.112000000     0.347000000     0.892000000
H    -2.744000000     0.784000000     1.661000000
C    -2.577000000    -0.605000000    -0.015000000
C    -4.053000000    -0.961000000    -0.070000000
O    -4.849000000    -0.322000000     0.631000000
O    -4.444000000    -1.761000000    -0.924000000
O   -10.256000000    -3.231000000    -0.228000000
H    -9.438000000    -2.866000000    -0.564000000
H   -10.253000000    -3.009000000     0.703000000
O    -5.470000000    -4.792000000     1.935000000
H    -5.633000000    -4.591000000     1.014000000
H    -4.526000000    -4.679000000     2.042000000
O    -5.027000000     1.460000000    -1.388000000
H    -4.606000000     0.995000000    -2.111000000
H    -4.820000000     0.936000000    -0.614000000
O    -8.167000000    -4.167000000    -2.842000000
H    -7.566000000    -4.797000000    -3.240000000
H    -7.941000000    -3.331000000    -3.249000000
O    -7.643000000    -1.356000000    -0.292000000
H    -7.369000000    -2.273000000    -0.310000000
H    -6.824000000    -0.861000000    -0.310000000
O    -5.378000000    -3.164000000    -3.051000000
H    -5.208000000    -2.743000000    -2.209000000
H    -5.399000000    -4.100000000    -2.851000000
O    -5.768000000    -1.440000000     2.775000000
H    -6.148000000    -2.201000000     2.336000000
H    -5.353000000    -0.940000000     2.072000000
O    -9.380000000    -0.929000000     1.912000000
H    -8.750000000    -1.037000000     1.199000000
H    -9.118000000    -1.578000000     2.564000000
O    -6.839000000     1.036000000    -4.188000000
H    -6.024000000     0.728000000    -3.792000000
H    -7.501000000     0.904000000    -3.510000000
O    -5.919000000    -7.248000000     0.440000000
H    -5.707000000    -6.617000000     1.127000000
H    -6.809000000    -7.019000000     0.171000000
O    -5.881000000     1.361000000     2.520000000
H    -5.422000000     0.907000000     1.814000000
H    -5.996000000     0.696000000     3.199000000
O    -5.957000000    -2.893000000    -5.698000000
H    -5.875000000    -2.927000000    -4.744000000
H    -5.421000000    -3.623000000    -6.010000000
O    -8.233000000     1.368000000    -1.819000000
H    -8.021000000     2.086000000    -1.223000000
H    -8.221000000     0.586000000    -1.267000000
O    -6.932000000     3.876000000     1.771000000
H    -6.485000000     3.593000000     0.974000000
H    -6.946000000     3.098000000     2.328000000
O    -6.950000000    -1.357000000     5.153000000
H    -6.605000000    -1.250000000     4.266000000
H    -7.542000000    -2.107000000     5.090000000
O    -6.409000000     3.766000000    -1.084000000
H    -5.773000000     3.051000000    -1.089000000
H    -6.424000000     4.080000000    -1.988000000
O    -7.113000000    -3.975000000    -0.458000000
H    -7.444000000    -4.059000000    -1.352000000
H    -7.397000000    -4.779000000    -0.021000000
O    -7.979000000    -3.541000000     2.799000000
H    -7.235000000    -4.118000000     2.629000000
H    -8.744000000    -4.113000000     2.737000000
O    -4.762000000    -0.452000000    -3.237000000
H    -5.151000000    -1.216000000    -3.664000000
H    -4.475000000    -0.775000000    -2.383000000
