215
-1463.05772
C    -1.608000000     0.982000000     5.383000000
H    -1.187000000     1.970000000     5.552000000
C    -0.768000000    -0.026000000     4.810000000
C    -1.410000000    -1.192000000     4.417000000
H    -0.772000000    -1.781000000     3.764000000
C     0.683000000     0.126000000     4.370000000
O     1.193000000     1.337000000     4.966000000
H     0.783000000     0.265000000     3.284000000
O     1.472000000    -1.029000000     4.750000000
C     2.297000000    -1.511000000     3.839000000
C     1.915000000    -2.615000000     3.133000000
H     0.932000000    -3.014000000     3.370000000
C     2.740000000    -3.115000000     2.125000000
O     2.187000000    -4.196000000     1.349000000
C     3.877000000    -2.365000000     1.722000000
C     4.692000000    -2.944000000     0.511000000
H     5.725000000    -2.608000000     0.624000000
C     4.241000000    -2.433000000    -0.882000000
C     4.694000000    -1.192000000    -1.414000000
H     5.403000000    -0.581000000    -0.861000000
H     4.888000000    -4.018000000     0.511000000
C     4.278000000    -1.287000000     2.479000000
H     5.229000000    -0.811000000     2.254000000
C     3.501000000    -0.853000000     3.477000000
C     3.929000000     0.484000000     4.114000000
H     5.002000000     0.683000000     4.069000000
H     3.784000000     0.352000000     5.189000000
C     3.146000000     1.674000000     3.571000000
C     3.665000000     2.406000000     2.501000000
H     4.614000000     1.989000000     2.175000000
C     1.897000000     2.061000000     4.031000000
C     1.200000000     3.114000000     3.411000000
H     0.269000000     3.462000000     3.851000000
C     1.777000000     3.825000000     2.337000000
O     0.978000000     4.818000000     1.739000000
C     0.442000000     4.223000000     0.477000000
C    -1.093000000     4.523000000     0.167000000
C    -1.454000000     5.081000000    -1.005000000
H    -0.769000000     5.431000000    -1.773000000
C    -2.031000000     4.099000000     1.108000000
H    -1.694000000     3.697000000     2.060000000
O     1.279000000     4.672000000    -0.609000000
H     0.587000000     3.133000000     0.511000000
C     3.075000000     3.497000000     1.803000000
C     3.768000000     4.074000000     0.631000000
H     4.846000000     4.053000000     0.804000000
H     3.499000000     5.132000000     0.615000000
C     3.278000000     3.332000000    -0.607000000
C     4.153000000     2.456000000    -1.244000000
H     5.167000000     2.344000000    -0.868000000
C     2.043000000     3.723000000    -1.201000000
C     1.613000000     3.053000000    -2.318000000
H     0.589000000     3.249000000    -2.626000000
C     2.469000000     2.129000000    -2.863000000
O     2.011000000     1.461000000    -4.041000000
C     1.385000000     0.196000000    -3.881000000
C     0.295000000     0.041000000    -4.885000000
C    -0.489000000     1.184000000    -5.104000000
H    -0.220000000     2.171000000    -4.735000000
C    -0.118000000    -1.183000000    -5.361000000
H     0.494000000    -2.029000000    -5.060000000
O     2.429000000    -0.799000000    -4.194000000
H     0.926000000     0.122000000    -2.885000000
C     3.757000000     1.789000000    -2.395000000
C     4.578000000     0.719000000    -3.071000000
H     5.633000000     0.948000000    -2.907000000
H     4.336000000     0.671000000    -4.135000000
C     4.203000000    -0.729000000    -2.610000000
C     3.119000000    -1.374000000    -3.171000000
C     2.653000000    -2.567000000    -2.586000000
H     1.784000000    -3.131000000    -2.916000000
C     3.223000000    -3.115000000    -1.500000000
O     2.543000000    -4.193000000    -0.945000000
C     1.531000000    -3.886000000     0.085000000
H     1.250000000    -2.823000000     0.103000000
C     0.245000000    -4.747000000    -0.093000000
C    -0.396000000    -5.340000000     1.028000000
H     0.028000000    -5.287000000     2.027000000
C    -0.289000000    -4.887000000    -1.340000000
H     0.295000000    -4.523000000    -2.182000000
C    -1.493000000    -5.622000000    -1.484000000
O    -2.147000000    -5.815000000    -2.702000000
C    -2.192000000    -6.149000000    -0.401000000
H    -3.151000000    -6.647000000    -0.521000000
C    -1.597000000    -6.067000000     0.875000000
O    -2.292000000    -6.580000000     1.960000000
C    -2.438000000    -5.804000000     3.077000000
C    -2.745000000    -4.462000000     2.956000000
H    -3.025000000    -4.027000000     2.000000000
C    -2.453000000    -6.445000000     4.265000000
H    -2.198000000    -7.495000000     4.149000000
C    -2.625000000    -5.778000000     5.457000000
H    -2.583000000    -6.252000000     6.435000000
C    -2.951000000    -4.414000000     5.384000000
H    -3.097000000    -3.754000000     6.235000000
C    -3.041000000    -3.759000000     4.131000000
O    -3.433000000    -2.481000000     3.978000000
C    -2.735000000    -1.444000000     4.577000000
C    -3.554000000    -0.474000000     5.145000000
H    -4.634000000    -0.602000000     5.126000000
C    -2.976000000     0.767000000     5.559000000
O    -3.732000000     1.845000000     5.920000000
C    -3.818000000     2.945000000     5.175000000
C    -4.268000000     2.907000000     3.834000000
H    -4.648000000     1.943000000     3.503000000
C    -3.349000000     4.147000000     5.632000000
H    -3.018000000     4.219000000     6.665000000
C    -3.305000000     5.306000000     4.852000000
H    -2.884000000     6.238000000     5.222000000
C    -3.626000000     5.251000000     3.502000000
H    -3.367000000     6.064000000     2.828000000
C    -4.129000000     4.027000000     2.998000000
O    -4.376000000     3.918000000     1.665000000
C    -3.383000000     4.338000000     0.833000000
C    -3.723000000     4.743000000    -0.450000000
H    -4.778000000     4.843000000    -0.691000000
C    -2.743000000     5.180000000    -1.394000000
O    -3.090000000     5.699000000    -2.608000000
C    -2.607000000     5.192000000    -3.816000000
C    -2.807000000     3.844000000    -4.187000000
H    -3.313000000     3.159000000    -3.512000000
C    -1.712000000     6.033000000    -4.599000000
H    -1.533000000     7.035000000    -4.217000000
C    -1.198000000     5.564000000    -5.820000000
H    -0.424000000     6.125000000    -6.338000000
C    -1.502000000     4.284000000    -6.269000000
H    -0.978000000     3.856000000    -7.119000000
C    -2.378000000     3.500000000    -5.497000000
O    -2.593000000     2.210000000    -5.865000000
C    -1.708000000     1.114000000    -5.736000000
C    -2.178000000    -0.139000000    -6.178000000
H    -3.211000000    -0.266000000    -6.492000000
C    -1.390000000    -1.264000000    -5.999000000
O    -1.945000000    -2.481000000    -6.249000000
C    -1.538000000    -3.712000000    -5.683000000
C    -0.537000000    -4.425000000    -6.310000000
H     0.030000000    -4.053000000    -7.159000000
C    -0.135000000    -5.677000000    -5.832000000
H     0.625000000    -6.285000000    -6.315000000
C    -0.630000000    -6.117000000    -4.623000000
H    -0.313000000    -7.069000000    -4.205000000
C    -1.607000000    -5.365000000    -3.933000000
C    -2.136000000    -4.227000000    -4.513000000
H    -2.952000000    -3.662000000    -4.068000000
C    -1.508000000    -1.407000000    -0.572000000
H    -1.385000000    -2.067000000    -1.427000000
C    -0.384000000    -0.634000000    -0.264000000
H     0.530000000    -0.699000000    -0.850000000
C    -0.435000000     0.207000000     0.820000000
H     0.391000000     0.832000000     1.075000000
C    -1.673000000     0.323000000     1.517000000
H    -1.822000000     0.969000000     2.379000000
C    -2.719000000    -0.493000000     1.241000000
H    -3.604000000    -0.526000000     1.870000000
C    -2.695000000    -1.398000000     0.178000000
C    -3.824000000    -2.331000000    -0.228000000
O    -4.701000000    -2.596000000     0.572000000
O    -3.887000000    -2.746000000    -1.365000000
O    -5.424000000    -5.263000000     1.113000000
H    -4.931000000    -4.532000000     0.740000000
H    -6.193000000    -4.855000000     1.510000000
O    -3.866000000    -8.725000000    -2.125000000
H    -4.783000000    -8.496000000    -2.277000000
H    -3.370000000    -8.048000000    -2.584000000
O    -4.649000000     1.425000000    -1.145000000
H    -5.074000000     0.604000000    -0.897000000
H    -3.938000000     1.527000000    -0.512000000
O    -8.481000000    -0.081000000    -4.079000000
H    -7.546000000     0.055000000    -4.232000000
H    -8.583000000    -1.032000000    -4.046000000
O    -7.142000000     1.984000000     1.306000000
H    -8.053000000     2.176000000     1.082000000
H    -6.924000000     1.213000000     0.784000000
O    -7.076000000    -3.175000000    -0.794000000
H    -6.743000000    -3.971000000    -1.210000000
H    -6.309000000    -2.784000000    -0.377000000
O    -4.914000000    -4.754000000    -2.566000000
H    -4.439000000    -4.012000000    -2.192000000
H    -4.242000000    -5.270000000    -3.011000000
O    -9.645000000    -2.911000000    -1.674000000
H   -10.117000000    -3.645000000    -1.279000000
H    -8.732000000    -3.055000000    -1.428000000
O    -6.498000000    -1.793000000     2.935000000
H    -5.964000000    -2.467000000     3.356000000
H    -6.155000000    -1.737000000     2.044000000
O    -9.025000000    -0.953000000     1.946000000
H    -8.143000000    -1.115000000     2.281000000
H    -9.243000000    -1.744000000     1.453000000
O    -5.770000000     1.797000000    -3.581000000
H    -5.332000000     2.078000000    -2.778000000
H    -5.715000000     0.842000000    -3.563000000
O    -5.601000000    -7.914000000     0.586000000
H    -5.250000000    -7.042000000     0.764000000
H    -4.897000000    -8.512000000     0.835000000
O    -6.958000000    -0.330000000    -0.495000000
H    -7.000000000    -1.180000000    -0.932000000
H    -7.452000000     0.258000000    -1.066000000
O    -5.730000000    -6.871000000     3.704000000
H    -6.489000000    -6.482000000     3.268000000
H    -4.980000000    -6.579000000     3.186000000
O    -5.385000000    -0.963000000    -3.382000000
H    -5.442000000    -1.531000000    -4.150000000
H    -4.745000000    -1.391000000    -2.813000000
O    -7.318000000    -4.808000000    -3.796000000
H    -6.534000000    -4.966000000    -3.271000000
H    -7.819000000    -5.621000000    -3.730000000
O    -7.123000000     0.853000000     4.397000000
H    -7.257000000     1.610000000     3.828000000
H    -6.483000000     0.314000000     3.933000000
O    -7.644000000    -4.748000000     2.949000000
H    -8.366000000    -5.361000000     3.086000000
H    -7.940000000    -3.934000000     3.357000000
O    -5.469000000    -3.098000000    -5.337000000
H    -5.991000000    -3.665000000    -4.770000000
H    -4.780000000    -3.668000000    -5.679000000
