215
-1465.40172
C    -1.601000000     1.242000000     4.764000000
H    -1.064000000     2.174000000     4.603000000
C    -0.938000000     0.028000000     4.570000000
C    -1.533000000    -1.149000000     4.852000000
H    -1.053000000    -2.080000000     4.562000000
C     0.504000000     0.033000000     4.094000000
O     1.316000000     1.187000000     4.599000000
H     0.462000000     0.036000000     2.995000000
O     1.201000000    -1.129000000     4.506000000
C     2.065000000    -1.746000000     3.711000000
C     1.670000000    -2.925000000     3.162000000
H     0.684000000    -3.224000000     3.508000000
C     2.376000000    -3.557000000     2.207000000
O     1.646000000    -4.491000000     1.561000000
C     3.591000000    -2.999000000     1.749000000
C     4.302000000    -3.588000000     0.577000000
H     5.372000000    -3.386000000     0.656000000
C     3.799000000    -3.008000000    -0.720000000
C     4.547000000    -1.952000000    -1.326000000
H     5.420000000    -1.604000000    -0.780000000
H     4.261000000    -4.679000000     0.599000000
C     4.086000000    -1.832000000     2.350000000
H     5.051000000    -1.483000000     1.988000000
C     3.303000000    -1.152000000     3.321000000
C     3.797000000     0.014000000     3.981000000
H     4.862000000    -0.052000000     4.215000000
H     3.357000000     0.124000000     4.974000000
C     3.342000000     1.306000000     3.309000000
C     4.118000000     1.960000000     2.375000000
H     5.129000000     1.595000000     2.216000000
C     2.116000000     1.828000000     3.695000000
C     1.535000000     2.901000000     2.997000000
H     0.514000000     3.219000000     3.190000000
C     2.264000000     3.519000000     1.932000000
O     1.641000000     4.456000000     1.204000000
C     1.168000000     4.205000000    -0.126000000
C    -0.168000000     4.872000000    -0.225000000
C    -0.588000000     5.314000000    -1.449000000
H     0.053000000     5.316000000    -2.327000000
C    -1.007000000     4.913000000     0.891000000
H    -0.581000000     4.663000000     1.860000000
O     2.098000000     4.615000000    -1.192000000
H     1.040000000     3.127000000    -0.303000000
C     3.580000000     3.054000000     1.616000000
C     4.377000000     3.488000000     0.364000000
H     5.461000000     3.388000000     0.446000000
H     4.284000000     4.576000000     0.378000000
C     3.907000000     2.969000000    -0.924000000
C     4.606000000     1.883000000    -1.482000000
H     5.421000000     1.412000000    -0.939000000
C     2.858000000     3.581000000    -1.663000000
C     2.412000000     3.052000000    -2.880000000
H     1.476000000     3.412000000    -3.299000000
C     3.030000000     1.929000000    -3.344000000
O     2.356000000     1.193000000    -4.313000000
C     1.551000000    -0.001000000    -3.987000000
C     0.255000000    -0.017000000    -4.790000000
C    -0.531000000     1.099000000    -4.691000000
H    -0.171000000     2.043000000    -4.289000000
C    -0.195000000    -1.186000000    -5.402000000
H     0.533000000    -1.978000000    -5.556000000
O     2.430000000    -1.183000000    -4.239000000
H     1.340000000    -0.067000000    -2.910000000
C     4.123000000     1.320000000    -2.624000000
C     4.781000000    -0.094000000    -3.023000000
H     5.798000000    -0.091000000    -2.626000000
H     4.830000000    -0.060000000    -4.114000000
C     4.045000000    -1.262000000    -2.450000000
C     2.885000000    -1.781000000    -3.067000000
C     2.185000000    -2.922000000    -2.565000000
H     1.420000000    -3.383000000    -3.185000000
C     2.673000000    -3.499000000    -1.421000000
O     1.926000000    -4.544000000    -0.814000000
C     0.984000000    -4.155000000     0.252000000
H     0.894000000    -3.060000000     0.294000000
C    -0.405000000    -4.698000000     0.130000000
C    -1.110000000    -5.086000000     1.274000000
H    -0.681000000    -5.220000000     2.264000000
C    -0.992000000    -4.737000000    -1.111000000
H    -0.477000000    -4.286000000    -1.955000000
C    -2.401000000    -5.035000000    -1.174000000
O    -3.043000000    -4.883000000    -2.401000000
C    -3.162000000    -5.341000000    -0.021000000
H    -4.194000000    -5.664000000    -0.127000000
C    -2.457000000    -5.455000000     1.210000000
O    -3.193000000    -5.906000000     2.351000000
C    -3.039000000    -5.426000000     3.617000000
C    -3.489000000    -4.142000000     3.869000000
H    -4.022000000    -3.622000000     3.077000000
C    -2.232000000    -6.102000000     4.506000000
H    -1.874000000    -7.100000000     4.264000000
C    -1.946000000    -5.537000000     5.766000000
H    -1.442000000    -6.164000000     6.497000000
C    -2.432000000    -4.314000000     6.044000000
H    -2.091000000    -3.781000000     6.927000000
C    -3.140000000    -3.535000000     5.142000000
O    -3.614000000    -2.305000000     5.475000000
C    -2.889000000    -1.161000000     5.296000000
C    -3.576000000     0.024000000     5.428000000
H    -4.617000000     0.020000000     5.742000000
C    -2.913000000     1.196000000     5.134000000
O    -3.687000000     2.359000000     5.237000000
C    -3.282000000     3.543000000     4.828000000
C    -3.438000000     3.940000000     3.442000000
H    -3.834000000     3.268000000     2.685000000
C    -2.812000000     4.499000000     5.716000000
H    -2.800000000     4.125000000     6.737000000
C    -2.427000000     5.745000000     5.339000000
H    -2.027000000     6.478000000     6.035000000
C    -2.509000000     6.111000000     3.944000000
H    -2.347000000     7.158000000     3.704000000
C    -2.974000000     5.184000000     3.005000000
O    -3.230000000     5.556000000     1.680000000
C    -2.364000000     5.332000000     0.633000000
C    -2.804000000     5.767000000    -0.588000000
H    -3.839000000     6.087000000    -0.667000000
C    -1.922000000     5.733000000    -1.671000000
O    -2.358000000     6.180000000    -2.927000000
C    -2.331000000     5.458000000    -4.091000000
C    -2.538000000     4.063000000    -4.042000000
H    -2.974000000     3.511000000    -3.214000000
C    -1.935000000     6.014000000    -5.291000000
H    -1.787000000     7.091000000    -5.327000000
C    -1.648000000     5.222000000    -6.393000000
H    -1.406000000     5.668000000    -7.354000000
C    -1.965000000     3.872000000    -6.336000000
H    -1.634000000     3.227000000    -7.145000000
C    -2.443000000     3.289000000    -5.183000000
O    -2.806000000     1.977000000    -5.057000000
C    -1.874000000     0.962000000    -5.164000000
C    -2.392000000    -0.207000000    -5.662000000
H    -3.395000000    -0.260000000    -6.078000000
C    -1.486000000    -1.240000000    -5.893000000
O    -1.982000000    -2.423000000    -6.427000000
C    -2.036000000    -3.640000000    -5.757000000
C    -1.741000000    -4.826000000    -6.444000000
H    -1.369000000    -4.817000000    -7.465000000
C    -1.829000000    -6.025000000    -5.701000000
H    -1.522000000    -6.930000000    -6.219000000
C    -2.297000000    -6.115000000    -4.388000000
H    -2.640000000    -7.001000000    -3.861000000
C    -2.538000000    -4.915000000    -3.701000000
C    -2.407000000    -3.687000000    -4.419000000
H    -2.639000000    -2.770000000    -3.882000000
C    -1.973000000    -1.354000000    -0.018000000
H    -2.423000000    -2.256000000    -0.426000000
C    -0.778000000    -0.937000000    -0.545000000
H    -0.289000000    -1.450000000    -1.369000000
C    -0.269000000     0.276000000    -0.120000000
H     0.684000000     0.627000000    -0.563000000
C    -0.887000000     1.043000000     0.868000000
H    -0.498000000     2.011000000     1.174000000
C    -2.105000000     0.591000000     1.342000000
H    -2.810000000     1.191000000     1.912000000
C    -2.659000000    -0.702000000     0.970000000
C    -4.067000000    -1.220000000     1.412000000
O    -4.716000000    -0.508000000     2.136000000
O    -4.585000000    -2.176000000     0.882000000
O    -9.667000000    -2.210000000    -1.018000000
H   -10.330000000    -2.081000000    -0.340000000
H    -9.283000000    -1.342000000    -1.147000000
O    -6.981000000     1.845000000     5.607000000
H    -7.564000000     2.581000000     5.419000000
H    -6.776000000     1.476000000     4.747000000
O    -6.294000000    -3.916000000     1.602000000
H    -6.850000000    -4.049000000     0.833000000
H    -5.649000000    -3.268000000     1.321000000
O    -3.112000000     2.359000000    -1.067000000
H    -2.289000000     1.913000000    -0.870000000
H    -3.615000000     1.722000000    -1.574000000
O    -6.761000000    -0.537000000     0.346000000
H    -6.343000000    -1.187000000    -0.219000000
H    -6.094000000    -0.325000000     1.000000000
O    -4.614000000    -2.375000000    -1.697000000
H    -4.587000000    -2.258000000    -0.747000000
H    -4.286000000    -3.263000000    -1.839000000
O    -6.401000000    -1.958000000     3.631000000
H    -6.506000000    -2.669000000     2.999000000
H    -5.781000000    -1.358000000     3.215000000
O    -9.234000000    -1.031000000     3.444000000
H    -9.352000000    -1.749000000     4.066000000
H    -8.308000000    -1.071000000     3.205000000
O    -6.214000000     2.273000000    -2.894000000
H    -5.581000000     1.555000000    -2.887000000
H    -6.630000000     2.235000000    -2.033000000
O    -6.622000000    -6.554000000     2.715000000
H    -5.963000000    -5.896000000     2.491000000
H    -7.366000000    -6.046000000     3.038000000
O    -6.277000000     1.500000000     2.845000000
H    -5.635000000     0.834000000     2.601000000
H    -6.570000000     1.867000000     2.011000000
O    -6.948000000    -1.899000000    -3.279000000
H    -6.209000000    -1.944000000    -2.672000000
H    -7.495000000    -1.192000000    -2.937000000
O    -7.514000000     2.750000000    -0.684000000
H    -7.203000000     3.314000000     0.025000000
H    -8.161000000     2.179000000    -0.270000000
O    -8.448000000     0.157000000    -2.660000000
H    -9.129000000     0.437000000    -3.272000000
H    -8.646000000     0.626000000    -1.849000000
O    -6.877000000     4.266000000     1.900000000
H    -6.270000000     4.221000000     2.639000000
H    -7.740000000     4.130000000     2.290000000
O    -6.449000000    -2.122000000     6.384000000
H    -6.548000000    -2.150000000     5.433000000
H    -5.506000000    -2.040000000     6.525000000
O    -5.201000000     4.568000000    -1.824000000
H    -4.473000000     4.188000000    -1.331000000
H    -5.639000000     3.816000000    -2.222000000
O    -7.707000000    -4.256000000    -0.965000000
H    -7.841000000    -4.979000000    -1.577000000
H    -8.520000000    -3.752000000    -1.007000000
O    -4.409000000     0.226000000    -2.635000000
H    -4.398000000    -0.632000000    -2.210000000
H    -3.979000000     0.082000000    -3.478000000
