215
-1468.88706
C    -1.545000000     0.738000000     4.777000000
H    -0.969000000     1.654000000     4.672000000
C    -0.814000000    -0.508000000     4.752000000
C    -1.498000000    -1.681000000     5.058000000
H    -0.849000000    -2.543000000     5.182000000
C     0.651000000    -0.497000000     4.366000000
O     1.360000000     0.646000000     4.993000000
H     0.674000000    -0.417000000     3.269000000
O     1.317000000    -1.767000000     4.673000000
C     2.028000000    -2.336000000     3.659000000
C     1.459000000    -3.265000000     2.837000000
H     0.484000000    -3.730000000     2.961000000
C     2.075000000    -3.785000000     1.727000000
O     1.474000000    -4.786000000     0.947000000
C     3.399000000    -3.359000000     1.380000000
C     4.121000000    -3.787000000     0.127000000
H     5.204000000    -3.702000000     0.242000000
C     3.618000000    -3.031000000    -1.137000000
C     4.290000000    -1.894000000    -1.529000000
H     5.157000000    -1.571000000    -0.957000000
H     3.963000000    -4.866000000     0.080000000
C     3.960000000    -2.335000000     2.139000000
H     4.899000000    -1.892000000     1.818000000
C     3.270000000    -1.765000000     3.245000000
C     3.920000000    -0.609000000     4.027000000
H     4.986000000    -0.689000000     3.807000000
H     3.825000000    -0.837000000     5.091000000
C     3.411000000     0.781000000     3.637000000
C     4.219000000     1.527000000     2.747000000
H     5.215000000     1.175000000     2.495000000
C     2.184000000     1.322000000     4.089000000
C     1.704000000     2.521000000     3.520000000
H     0.742000000     2.948000000     3.794000000
C     2.444000000     3.170000000     2.488000000
O     1.820000000     4.236000000     1.848000000
C     1.268000000     4.123000000     0.500000000
C    -0.025000000     4.943000000     0.340000000
C    -0.375000000     5.546000000    -0.892000000
H     0.293000000     5.466000000    -1.746000000
C    -0.955000000     4.940000000     1.398000000
H    -0.743000000     4.452000000     2.346000000
O     2.272000000     4.492000000    -0.398000000
H     1.040000000     3.064000000     0.306000000
C     3.694000000     2.618000000     2.060000000
C     4.571000000     3.141000000     0.923000000
H     5.598000000     2.793000000     1.053000000
H     4.640000000     4.223000000     1.059000000
C     3.906000000     2.789000000    -0.449000000
C     4.478000000     1.700000000    -1.174000000
H     5.313000000     1.164000000    -0.729000000
C     2.818000000     3.498000000    -1.080000000
C     2.362000000     3.146000000    -2.299000000
H     1.405000000     3.562000000    -2.603000000
C     2.826000000     2.019000000    -3.016000000
O     2.125000000     1.453000000    -4.115000000
C     1.320000000     0.314000000    -3.839000000
C    -0.109000000     0.396000000    -4.396000000
C    -0.697000000     1.623000000    -4.553000000
H    -0.099000000     2.502000000    -4.328000000
C    -0.802000000    -0.762000000    -4.744000000
H    -0.346000000    -1.740000000    -4.613000000
O     2.008000000    -0.887000000    -4.308000000
H     1.145000000     0.154000000    -2.765000000
C     3.892000000     1.301000000    -2.384000000
C     4.446000000     0.059000000    -3.100000000
H     5.509000000    -0.118000000    -2.929000000
H     4.279000000     0.238000000    -4.165000000
C     3.735000000    -1.170000000    -2.612000000
C     2.632000000    -1.593000000    -3.350000000
C     2.041000000    -2.810000000    -2.965000000
H     1.159000000    -3.118000000    -3.521000000
C     2.512000000    -3.553000000    -1.886000000
O     1.734000000    -4.575000000    -1.392000000
C     0.866000000    -4.277000000    -0.263000000
H     0.871000000    -3.179000000    -0.201000000
C    -0.585000000    -4.791000000    -0.576000000
C    -1.550000000    -4.470000000     0.346000000
H    -1.209000000    -4.036000000     1.283000000
C    -0.992000000    -5.234000000    -1.811000000
H    -0.275000000    -5.635000000    -2.523000000
C    -2.309000000    -5.397000000    -2.112000000
O    -2.703000000    -5.769000000    -3.401000000
C    -3.288000000    -5.101000000    -1.151000000
H    -4.363000000    -4.997000000    -1.271000000
C    -2.909000000    -4.716000000     0.116000000
O    -3.929000000    -4.332000000     1.042000000
C    -3.705000000    -4.683000000     2.404000000
C    -3.802000000    -3.636000000     3.346000000
H    -3.997000000    -2.592000000     3.115000000
C    -3.435000000    -6.001000000     2.815000000
H    -3.228000000    -6.810000000     2.120000000
C    -3.287000000    -6.248000000     4.140000000
H    -3.060000000    -7.254000000     4.486000000
C    -3.352000000    -5.240000000     5.116000000
H    -3.350000000    -5.471000000     6.179000000
C    -3.545000000    -3.946000000     4.664000000
O    -3.422000000    -2.916000000     5.655000000
C    -2.878000000    -1.664000000     5.328000000
C    -3.580000000    -0.469000000     5.190000000
H    -4.616000000    -0.485000000     5.516000000
C    -2.932000000     0.768000000     4.994000000
O    -3.573000000     1.923000000     5.399000000
C    -3.155000000     3.177000000     5.078000000
C    -3.299000000     3.701000000     3.797000000
H    -3.796000000     3.084000000     3.053000000
C    -2.522000000     3.950000000     6.029000000
H    -2.436000000     3.492000000     7.011000000
C    -1.973000000     5.169000000     5.731000000
H    -1.371000000     5.703000000     6.462000000
C    -2.181000000     5.703000000     4.426000000
H    -1.802000000     6.691000000     4.179000000
C    -2.931000000     5.013000000     3.490000000
O    -3.170000000     5.495000000     2.215000000
C    -2.198000000     5.475000000     1.255000000
C    -2.508000000     6.174000000     0.106000000
H    -3.525000000     6.557000000     0.119000000
C    -1.605000000     6.257000000    -0.922000000
O    -2.094000000     6.566000000    -2.134000000
C    -1.675000000     5.930000000    -3.257000000
C    -2.283000000     4.786000000    -3.614000000
H    -3.005000000     4.272000000    -2.985000000
C    -0.698000000     6.553000000    -4.039000000
H    -0.285000000     7.507000000    -3.721000000
C    -0.352000000     5.973000000    -5.251000000
H     0.422000000     6.391000000    -5.890000000
C    -0.892000000     4.712000000    -5.565000000
H    -0.621000000     4.139000000    -6.448000000
C    -1.924000000     4.195000000    -4.809000000
O    -2.489000000     3.011000000    -5.191000000
C    -1.921000000     1.798000000    -5.097000000
C    -2.606000000     0.640000000    -5.497000000
H    -3.563000000     0.745000000    -6.001000000
C    -2.075000000    -0.641000000    -5.352000000
O    -2.780000000    -1.753000000    -5.841000000
C    -2.373000000    -3.013000000    -5.738000000
C    -1.453000000    -3.531000000    -6.661000000
H    -1.134000000    -2.872000000    -7.464000000
C    -1.002000000    -4.865000000    -6.526000000
H    -0.246000000    -5.296000000    -7.177000000
C    -1.407000000    -5.688000000    -5.423000000
H    -1.080000000    -6.721000000    -5.339000000
C    -2.271000000    -5.084000000    -4.506000000
C    -2.919000000    -3.836000000    -4.768000000
H    -3.662000000    -3.428000000    -4.087000000
C    -2.318000000    -1.407000000    -0.557000000
H    -2.954000000    -1.987000000    -1.220000000
C    -0.981000000    -1.241000000    -0.886000000
H    -0.704000000    -1.786000000    -1.785000000
C    -0.126000000    -0.597000000    -0.024000000
H     0.880000000    -0.318000000    -0.358000000
C    -0.657000000     0.022000000     1.105000000
H     0.088000000     0.542000000     1.702000000
C    -2.008000000    -0.167000000     1.488000000
H    -2.349000000     0.304000000     2.406000000
C    -2.854000000    -0.816000000     0.544000000
C    -4.325000000    -0.772000000     0.769000000
O    -4.798000000    -0.244000000     1.753000000
O    -5.095000000    -1.315000000    -0.028000000
O    -7.775000000     3.602000000    -1.222000000
H    -7.523000000     3.857000000    -0.335000000
H    -7.383000000     2.737000000    -1.343000000
O    -8.285000000     2.201000000     2.633000000
H    -9.171000000     1.840000000     2.650000000
H    -7.728000000     1.482000000     2.932000000
O    -9.212000000    -4.427000000    -0.393000000
H    -8.988000000    -4.502000000    -1.321000000
H    -8.508000000    -3.899000000    -0.018000000
O    -1.724000000     1.898000000    -1.215000000
H    -1.468000000     0.996000000    -1.024000000
H    -2.258000000     2.160000000    -0.465000000
O    -6.893000000     1.202000000    -0.198000000
H    -7.558000000     1.496000000     0.424000000
H    -6.616000000     0.348000000     0.133000000
O    -3.582000000     2.714000000     0.568000000
H    -3.873000000     1.965000000     1.089000000
H    -4.212000000     3.406000000     0.770000000
O    -9.013000000     0.070000000    -2.118000000
H    -8.087000000    -0.050000000    -2.332000000
H    -9.453000000     0.101000000    -2.968000000
O    -6.780000000    -2.896000000     1.453000000
H    -6.143000000    -2.417000000     0.924000000
H    -7.498000000    -2.275000000     1.583000000
O    -4.591000000     1.681000000    -2.236000000
H    -5.103000000     1.318000000    -1.513000000
H    -3.739000000     1.882000000    -1.849000000
O    -5.317000000    -0.890000000    -2.799000000
H    -4.933000000    -0.037000000    -3.001000000
H    -5.192000000    -0.992000000    -1.856000000
O    -7.666000000     1.021000000     6.406000000
H    -7.047000000     0.909000000     5.684000000
H    -8.059000000     1.880000000     6.254000000
O    -6.983000000    -2.896000000     4.378000000
H    -6.752000000    -3.731000000     4.786000000
H    -6.708000000    -2.991000000     3.466000000
O    -7.254000000     1.009000000    -4.994000000
H    -6.772000000     0.498000000    -4.343000000
H    -6.808000000     1.856000000    -5.011000000
O    -6.237000000    -2.876000000    -4.568000000
H    -5.753000000    -2.256000000    -4.022000000
H    -5.955000000    -2.680000000    -5.461000000
O    -9.097000000    -1.384000000     0.783000000
H    -8.842000000    -0.980000000    -0.047000000
H    -9.696000000    -0.754000000     1.182000000
O    -5.414000000     2.962000000    -4.542000000
H    -5.094000000     2.683000000    -3.684000000
H    -4.622000000     3.087000000    -5.064000000
O    -5.603000000     4.960000000     0.736000000
H    -6.236000000     5.178000000     1.420000000
H    -5.948000000     5.382000000    -0.051000000
O    -6.470000000     0.183000000     3.828000000
H    -5.816000000     0.032000000     3.146000000
H    -6.664000000    -0.690000000     4.171000000
O    -6.370000000    -5.709000000     1.025000000
H    -6.023000000    -4.822000000     1.122000000
H    -6.444000000    -6.037000000     1.922000000
