215
-1469.74037
C    -2.837000000     0.208000000     4.358000000
H    -2.303000000     1.124000000     4.600000000
C    -2.075000000    -0.925000000     3.981000000
C    -2.716000000    -2.084000000     3.587000000
H    -2.194000000    -2.981000000     3.266000000
C    -0.567000000    -0.865000000     3.829000000
O    -0.022000000     0.085000000     4.723000000
H    -0.313000000    -0.586000000     2.796000000
O     0.040000000    -2.099000000     4.169000000
C     1.112000000    -2.527000000     3.451000000
C     0.807000000    -3.483000000     2.449000000
H    -0.201000000    -3.864000000     2.305000000
C     1.840000000    -3.870000000     1.586000000
O     1.605000000    -4.785000000     0.626000000
C     3.088000000    -3.257000000     1.624000000
C     4.175000000    -3.594000000     0.672000000
H     5.193000000    -3.477000000     1.050000000
C     3.956000000    -2.675000000    -0.490000000
C     4.623000000    -1.434000000    -0.596000000
H     5.404000000    -1.288000000     0.145000000
H     4.064000000    -4.663000000     0.477000000
C     3.399000000    -2.319000000     2.643000000
H     4.296000000    -1.707000000     2.611000000
C     2.409000000    -1.958000000     3.570000000
C     2.719000000    -0.873000000     4.629000000
H     3.772000000    -0.912000000     4.915000000
H     2.152000000    -1.134000000     5.525000000
C     2.331000000     0.473000000     4.131000000
C     3.268000000     1.357000000     3.589000000
H     4.241000000     0.995000000     3.268000000
C     0.967000000     0.883000000     4.183000000
C     0.634000000     2.199000000     3.732000000
H    -0.349000000     2.644000000     3.863000000
C     1.622000000     3.024000000     3.157000000
O     1.205000000     4.282000000     2.718000000
C     0.811000000     4.251000000     1.342000000
C    -0.468000000     4.958000000     0.943000000
C    -0.578000000     5.432000000    -0.346000000
H     0.230000000     5.259000000    -1.052000000
C    -1.503000000     5.028000000     1.853000000
H    -1.335000000     4.505000000     2.791000000
O     1.953000000     4.674000000     0.538000000
H     0.576000000     3.198000000     1.125000000
C     2.911000000     2.505000000     2.940000000
C     3.967000000     3.254000000     2.111000000
H     4.965000000     2.860000000     2.314000000
H     4.031000000     4.286000000     2.461000000
C     3.775000000     3.131000000     0.652000000
C     4.502000000     2.137000000    -0.024000000
H     5.209000000     1.560000000     0.567000000
C     2.727000000     3.708000000    -0.058000000
C     2.584000000     3.498000000    -1.403000000
H     1.803000000     4.008000000    -1.961000000
C     3.354000000     2.549000000    -2.089000000
O     2.847000000     2.202000000    -3.336000000
C     2.206000000     0.928000000    -3.310000000
C     0.930000000     0.988000000    -4.219000000
C     0.154000000     2.146000000    -4.280000000
H     0.439000000     3.022000000    -3.702000000
C     0.417000000    -0.149000000    -4.881000000
H     0.944000000    -1.087000000    -4.725000000
O     3.147000000    -0.126000000    -3.650000000
H     1.797000000     0.813000000    -2.295000000
C     4.336000000     1.820000000    -1.356000000
C     5.216000000     0.675000000    -1.843000000
H     6.117000000     0.587000000    -1.233000000
H     5.413000000     0.971000000    -2.876000000
C     4.426000000    -0.604000000    -1.703000000
C     3.499000000    -1.023000000    -2.692000000
C     2.868000000    -2.234000000    -2.611000000
H     2.051000000    -2.528000000    -3.264000000
C     3.108000000    -3.060000000    -1.542000000
O     2.358000000    -4.192000000    -1.551000000
C     1.243000000    -4.163000000    -0.615000000
H     0.993000000    -3.107000000    -0.438000000
C    -0.019000000    -4.878000000    -1.098000000
C    -1.009000000    -5.323000000    -0.250000000
H    -0.862000000    -5.335000000     0.827000000
C    -0.102000000    -5.023000000    -2.517000000
H     0.750000000    -4.801000000    -3.155000000
C    -1.195000000    -5.619000000    -3.002000000
O    -1.364000000    -5.861000000    -4.343000000
C    -2.262000000    -5.967000000    -2.167000000
H    -3.090000000    -6.552000000    -2.557000000
C    -2.184000000    -5.862000000    -0.789000000
O    -3.305000000    -6.250000000    -0.033000000
C    -3.439000000    -5.941000000     1.320000000
C    -4.156000000    -4.800000000     1.703000000
H    -4.750000000    -4.167000000     1.049000000
C    -2.638000000    -6.616000000     2.256000000
H    -2.044000000    -7.456000000     1.905000000
C    -2.580000000    -6.181000000     3.628000000
H    -1.999000000    -6.761000000     4.341000000
C    -3.374000000    -5.177000000     4.015000000
H    -3.424000000    -4.903000000     5.066000000
C    -4.133000000    -4.445000000     3.043000000
O    -4.816000000    -3.304000000     3.389000000
C    -4.107000000    -2.149000000     3.740000000
C    -4.882000000    -1.069000000     4.108000000
H    -5.969000000    -1.064000000     4.117000000
C    -4.217000000     0.203000000     4.354000000
O    -4.967000000     1.275000000     4.558000000
C    -4.490000000     2.589000000     4.487000000
C    -4.416000000     3.342000000     3.346000000
H    -4.722000000     2.955000000     2.377000000
C    -4.226000000     3.152000000     5.701000000
H    -4.349000000     2.599000000     6.628000000
C    -3.878000000     4.528000000     5.768000000
H    -3.844000000     5.003000000     6.745000000
C    -3.706000000     5.290000000     4.607000000
H    -3.433000000     6.340000000     4.676000000
C    -3.968000000     4.648000000     3.451000000
O    -3.843000000     5.320000000     2.339000000
C    -2.727000000     5.507000000     1.474000000
C    -2.816000000     6.017000000     0.190000000
H    -3.769000000     6.499000000    -0.014000000
C    -1.834000000     5.987000000    -0.745000000
O    -2.012000000     6.595000000    -1.938000000
C    -1.414000000     6.120000000    -3.094000000
C    -1.863000000     4.987000000    -3.724000000
H    -2.600000000     4.331000000    -3.268000000
C    -0.290000000     6.805000000    -3.565000000
H    -0.117000000     7.760000000    -3.076000000
C     0.257000000     6.477000000    -4.766000000
H     1.074000000     7.023000000    -5.231000000
C    -0.146000000     5.287000000    -5.408000000
H     0.310000000     4.907000000    -6.319000000
C    -1.214000000     4.566000000    -4.832000000
O    -1.546000000     3.406000000    -5.484000000
C    -0.958000000     2.196000000    -5.126000000
C    -1.381000000     1.068000000    -5.841000000
H    -2.226000000     1.086000000    -6.525000000
C    -0.802000000    -0.167000000    -5.510000000
O    -1.351000000    -1.332000000    -6.001000000
C    -0.797000000    -2.623000000    -6.093000000
C     0.165000000    -2.947000000    -7.019000000
H     0.581000000    -2.137000000    -7.614000000
C     0.748000000    -4.221000000    -6.984000000
H     1.614000000    -4.400000000    -7.616000000
C     0.300000000    -5.228000000    -6.100000000
H     0.664000000    -6.251000000    -6.063000000
C    -0.780000000    -4.868000000    -5.256000000
C    -1.302000000    -3.557000000    -5.201000000
H    -2.158000000    -3.241000000    -4.611000000
C    -2.011000000    -1.477000000    -1.517000000
H    -2.260000000    -2.344000000    -2.124000000
C    -0.764000000    -0.935000000    -1.448000000
H     0.021000000    -1.357000000    -2.071000000
C    -0.498000000     0.171000000    -0.640000000
H     0.558000000     0.546000000    -0.534000000
C    -1.522000000     0.711000000     0.183000000
H    -1.177000000     1.389000000     0.959000000
C    -2.816000000     0.199000000     0.099000000
H    -3.631000000     0.516000000     0.745000000
C    -3.104000000    -0.865000000    -0.808000000
C    -4.477000000    -1.563000000    -0.856000000
O    -5.346000000    -1.383000000    -0.033000000
O    -4.680000000    -2.326000000    -1.778000000
O    -7.590000000     2.704000000    -3.727000000
H    -7.576000000     3.482000000    -3.169000000
H    -7.530000000     1.970000000    -3.116000000
O    -8.904000000     1.745000000     0.107000000
H    -9.459000000     1.123000000     0.578000000
H    -9.376000000     2.576000000     0.162000000
O    -7.395000000    -2.564000000    -1.475000000
H    -6.439000000    -2.534000000    -1.465000000
H    -7.644000000    -2.606000000    -0.552000000
O    -4.742000000    -6.933000000    -4.315000000
H    -4.953000000    -6.296000000    -3.633000000
H    -4.196000000    -7.584000000    -3.874000000
O    -3.128000000     1.577000000    -2.998000000
H    -2.462000000     1.086000000    -2.516000000
H    -3.780000000     1.809000000    -2.336000000
O    -7.568000000     0.397000000    -1.814000000
H    -8.165000000     0.566000000    -1.085000000
H    -7.449000000    -0.552000000    -1.811000000
O    -4.901000000     2.626000000    -1.342000000
H    -5.818000000     2.379000000    -1.224000000
H    -4.780000000     3.378000000    -0.763000000
O    -9.186000000    -2.440000000    -4.269000000
H    -8.392000000    -2.214000000    -3.785000000
H    -8.956000000    -3.236000000    -4.748000000
O    -4.695000000    -2.671000000    -5.895000000
H    -4.216000000    -2.414000000    -6.683000000
H    -4.477000000    -1.997000000    -5.252000000
O    -7.000000000    -0.537000000    -5.411000000
H    -7.679000000    -1.063000000    -4.986000000
H    -6.238000000    -0.625000000    -4.839000000
O    -7.100000000    -2.847000000     1.218000000
H    -6.502000000    -2.280000000     0.730000000
H    -7.224000000    -2.400000000     2.055000000
O    -4.915000000     2.138000000    -5.229000000
H    -5.718000000     2.387000000    -4.771000000
H    -4.336000000     1.814000000    -4.539000000
O    -4.822000000    -0.842000000    -3.853000000
H    -4.322000000    -0.040000000    -3.700000000
H    -4.913000000    -1.236000000    -2.986000000
O    -9.440000000    -4.766000000    -1.755000000
H    -9.110000000    -5.237000000    -2.520000000
H    -8.926000000    -3.958000000    -1.731000000
O    -6.701000000    -4.263000000    -4.769000000
H    -6.293000000    -4.263000000    -3.903000000
H    -6.033000000    -3.897000000    -5.348000000
O    -8.065000000     1.297000000     3.792000000
H    -7.517000000     1.233000000     3.010000000
H    -7.452000000     1.497000000     4.499000000
O    -5.268000000    -4.876000000    -2.295000000
H    -5.994000000    -5.000000000    -1.684000000
H    -5.058000000    -3.944000000    -2.231000000
O    -6.452000000     0.465000000     1.746000000
H    -6.971000000     0.568000000     0.948000000
H    -5.901000000    -0.299000000     1.577000000
O    -7.475000000    -5.669000000     1.717000000
H    -7.392000000    -4.733000000     1.533000000
H    -7.275000000    -5.749000000     2.649000000
