215
-1458.06853
C    -2.073000000     0.509000000     4.935000000
H    -1.551000000     1.459000000     5.024000000
C    -1.409000000    -0.626000000     4.406000000
C    -2.160000000    -1.771000000     4.190000000
H    -1.734000000    -2.643000000     3.702000000
C     0.076000000    -0.576000000     4.016000000
O     0.680000000     0.545000000     4.781000000
H     0.219000000    -0.376000000     2.943000000
O     0.712000000    -1.836000000     4.365000000
C     1.649000000    -2.345000000     3.477000000
C     1.175000000    -3.370000000     2.685000000
H     0.181000000    -3.805000000     2.749000000
C     2.026000000    -3.800000000     1.679000000
O     1.487000000    -4.775000000     0.861000000
C     3.317000000    -3.327000000     1.600000000
C     4.192000000    -3.700000000     0.421000000
H     5.226000000    -3.550000000     0.737000000
C     3.905000000    -2.873000000    -0.818000000
C     4.584000000    -1.685000000    -1.043000000
H     5.371000000    -1.385000000    -0.357000000
H     4.044000000    -4.756000000     0.184000000
C     3.767000000    -2.329000000     2.467000000
H     4.785000000    -1.957000000     2.388000000
C     2.909000000    -1.804000000     3.437000000
C     3.408000000    -0.705000000     4.341000000
H     4.492000000    -0.816000000     4.414000000
H     3.102000000    -0.853000000     5.378000000
C     2.955000000     0.725000000     3.897000000
C     3.775000000     1.460000000     3.049000000
H     4.785000000     1.117000000     2.836000000
C     1.727000000     1.282000000     4.233000000
C     1.298000000     2.524000000     3.747000000
H     0.268000000     2.811000000     3.940000000
C     2.071000000     3.166000000     2.811000000
O     1.699000000     4.392000000     2.303000000
C     1.244000000     4.331000000     0.955000000
C    -0.160000000     4.860000000     0.713000000
C    -0.364000000     5.670000000    -0.359000000
H     0.462000000     5.970000000    -0.999000000
C    -1.237000000     4.389000000     1.506000000
H    -0.982000000     3.869000000     2.425000000
O     2.267000000     4.745000000    -0.030000000
H     1.149000000     3.251000000     0.767000000
C     3.319000000     2.687000000     2.445000000
C     4.278000000     3.468000000     1.504000000
H     5.242000000     3.029000000     1.769000000
H     4.272000000     4.540000000     1.713000000
C     3.994000000     3.113000000     0.070000000
C     4.684000000     2.125000000    -0.559000000
H     5.569000000     1.704000000    -0.088000000
C     2.975000000     3.793000000    -0.640000000
C     2.640000000     3.383000000    -1.905000000
H     1.912000000     3.961000000    -2.468000000
C     3.252000000     2.256000000    -2.507000000
O     2.740000000     1.754000000    -3.682000000
C     1.993000000     0.517000000    -3.686000000
C     0.638000000     0.627000000    -4.428000000
C    -0.052000000     1.831000000    -4.330000000
H     0.230000000     2.657000000    -3.681000000
C     0.135000000    -0.513000000    -5.101000000
H     0.657000000    -1.466000000    -5.114000000
O     2.741000000    -0.636000000    -4.067000000
H     1.674000000     0.416000000    -2.638000000
C     4.277000000     1.607000000    -1.803000000
C     5.068000000     0.408000000    -2.353000000
H     6.045000000     0.353000000    -1.869000000
H     5.320000000     0.577000000    -3.403000000
C     4.293000000    -0.922000000    -2.196000000
C     3.242000000    -1.347000000    -3.012000000
C     2.564000000    -2.535000000    -2.753000000
H     1.783000000    -2.873000000    -3.430000000
C     2.940000000    -3.357000000    -1.710000000
O     2.104000000    -4.336000000    -1.431000000
C     1.057000000    -4.180000000    -0.430000000
H     0.990000000    -3.109000000    -0.191000000
C    -0.307000000    -4.657000000    -0.827000000
C    -1.299000000    -4.918000000     0.170000000
H    -1.112000000    -4.971000000     1.239000000
C    -0.646000000    -4.852000000    -2.171000000
H     0.131000000    -4.747000000    -2.923000000
C    -1.977000000    -5.076000000    -2.528000000
O    -2.410000000    -5.152000000    -3.809000000
C    -2.852000000    -5.391000000    -1.570000000
H    -3.869000000    -5.687000000    -1.814000000
C    -2.572000000    -5.311000000    -0.217000000
O    -3.553000000    -5.710000000     0.705000000
C    -3.481000000    -5.536000000     2.104000000
C    -3.750000000    -4.298000000     2.682000000
H    -3.807000000    -3.411000000     2.056000000
C    -3.228000000    -6.653000000     2.927000000
H    -2.933000000    -7.585000000     2.451000000
C    -3.503000000    -6.567000000     4.296000000
H    -3.370000000    -7.424000000     4.950000000
C    -3.937000000    -5.387000000     4.858000000
H    -4.239000000    -5.333000000     5.901000000
C    -4.022000000    -4.224000000     4.032000000
O    -4.328000000    -2.985000000     4.553000000
C    -3.499000000    -1.902000000     4.635000000
C    -4.085000000    -0.750000000     5.238000000
H    -5.078000000    -0.905000000     5.650000000
C    -3.415000000     0.441000000     5.278000000
O    -3.930000000     1.558000000     5.831000000
C    -3.781000000     2.784000000     5.218000000
C    -3.798000000     2.865000000     3.834000000
H    -3.962000000     1.964000000     3.248000000
C    -3.595000000     3.884000000     5.948000000
H    -3.689000000     3.724000000     7.019000000
C    -3.474000000     5.158000000     5.368000000
H    -3.514000000     6.021000000     6.028000000
C    -3.541000000     5.279000000     3.990000000
H    -3.501000000     6.271000000     3.546000000
C    -3.636000000     4.098000000     3.183000000
O    -3.574000000     4.130000000     1.769000000
C    -2.511000000     4.617000000     1.099000000
C    -2.700000000     5.375000000    -0.112000000
H    -3.695000000     5.396000000    -0.547000000
C    -1.636000000     5.923000000    -0.806000000
O    -1.773000000     6.647000000    -1.931000000
C    -1.446000000     6.154000000    -3.172000000
C    -1.836000000     4.925000000    -3.613000000
H    -2.571000000     4.313000000    -3.097000000
C    -0.590000000     6.886000000    -3.985000000
H    -0.345000000     7.868000000    -3.588000000
C    -0.201000000     6.476000000    -5.232000000
H     0.452000000     7.098000000    -5.839000000
C    -0.500000000     5.191000000    -5.681000000
H    -0.145000000     4.748000000    -6.608000000
C    -1.348000000     4.426000000    -4.850000000
O    -1.855000000     3.197000000    -5.168000000
C    -1.291000000     1.964000000    -5.000000000
C    -1.768000000     0.888000000    -5.723000000
H    -2.670000000     0.976000000    -6.323000000
C    -1.092000000    -0.356000000    -5.760000000
O    -1.679000000    -1.300000000    -6.534000000
C    -1.690000000    -2.663000000    -6.370000000
C    -1.108000000    -3.403000000    -7.371000000
H    -0.839000000    -2.907000000    -8.299000000
C    -0.957000000    -4.779000000    -7.220000000
H    -0.438000000    -5.325000000    -8.004000000
C    -1.265000000    -5.325000000    -5.902000000
H    -1.132000000    -6.396000000    -5.774000000
C    -1.801000000    -4.557000000    -4.883000000
C    -1.953000000    -3.182000000    -5.091000000
H    -2.348000000    -2.624000000    -4.247000000
C    -2.177000000    -1.447000000    -0.921000000
H    -2.560000000    -2.005000000    -1.771000000
C    -0.925000000    -0.856000000    -0.861000000
H    -0.243000000    -0.988000000    -1.697000000
C    -0.562000000    -0.070000000     0.176000000
H     0.375000000     0.396000000     0.199000000
C    -1.469000000     0.143000000     1.177000000
H    -1.206000000     0.764000000     2.030000000
C    -2.745000000    -0.349000000     1.091000000
H    -3.514000000    -0.125000000     1.825000000
C    -3.165000000    -1.124000000     0.016000000
C    -4.609000000    -1.462000000    -0.178000000
O    -5.364000000    -0.990000000     0.582000000
O    -5.017000000    -1.921000000    -1.222000000
O    -6.851000000     2.708000000    -2.880000000
H    -6.137000000     2.915000000    -2.278000000
H    -7.485000000     2.231000000    -2.345000000
O    -7.784000000     2.113000000     1.407000000
H    -8.643000000     1.726000000     1.578000000
H    -7.162000000     1.487000000     1.778000000
O    -7.849000000    -2.296000000    -2.323000000
H    -7.201000000    -2.988000000    -2.195000000
H    -7.371000000    -1.485000000    -2.151000000
O    -3.806000000     1.563000000    -2.598000000
H    -3.148000000     0.950000000    -2.268000000
H    -3.977000000     2.149000000    -1.860000000
O    -7.303000000     0.464000000    -0.937000000
H    -7.509000000     0.886000000    -0.104000000
H    -6.463000000     0.031000000    -0.786000000
O    -5.422000000     3.292000000    -0.697000000
H    -5.666000000     2.948000000     0.162000000
H    -5.714000000     4.204000000    -0.682000000
O    -5.718000000    -2.804000000    -5.544000000
H    -5.241000000    -2.702000000    -6.368000000
H    -5.340000000    -2.143000000    -4.965000000
O    -7.890000000    -0.636000000    -4.604000000
H    -8.320000000    -1.484000000    -4.711000000
H    -7.095000000    -0.832000000    -4.108000000
O    -7.670000000    -2.532000000     1.235000000
H    -6.984000000    -1.958000000     0.893000000
H    -7.613000000    -2.432000000     2.186000000
O    -5.212000000     2.456000000    -4.989000000
H    -5.961000000     2.497000000    -4.395000000
H    -4.508000000     2.078000000    -4.462000000
O    -5.073000000    -0.740000000    -3.584000000
H    -4.557000000     0.048000000    -3.413000000
H    -5.122000000    -1.183000000    -2.737000000
O    -6.071000000    -5.365000000    -3.938000000
H    -6.036000000    -4.812000000    -3.157000000
H    -5.790000000    -4.792000000    -4.651000000
O   -10.032000000     0.284000000    -2.526000000
H    -9.374000000     0.139000000    -3.205000000
H    -9.695000000    -0.184000000    -1.761000000
O    -7.477000000     1.487000000     5.008000000
H    -6.854000000     1.321000000     4.301000000
H    -7.143000000     2.272000000     5.442000000
O    -7.633000000    -2.186000000     3.707000000
H    -8.109000000    -1.737000000     4.406000000
H    -7.461000000    -3.060000000     4.058000000
O    -5.929000000    -4.262000000    -1.367000000
H    -6.130000000    -4.522000000    -0.468000000
H    -5.388000000    -3.477000000    -1.274000000
O    -9.797000000    -1.599000000    -0.127000000
H    -8.878000000    -1.824000000     0.021000000
H   -10.044000000    -2.100000000    -0.904000000
O    -6.207000000     0.282000000     2.571000000
H    -5.700000000    -0.190000000     1.911000000
H    -6.771000000    -0.385000000     2.963000000
O    -6.725000000    -5.035000000     1.401000000
H    -7.273000000    -4.276000000     1.197000000
H    -6.561000000    -4.965000000     2.341000000
