215
-1449.09459
C    -1.342000000     1.421000000     4.426000000
H    -0.667000000     2.245000000     4.208000000
C    -0.741000000     0.168000000     4.445000000
C    -1.532000000    -0.950000000     4.743000000
H    -0.973000000    -1.868000000     4.902000000
C     0.697000000    -0.020000000     3.982000000
O     1.440000000     1.225000000     4.218000000
H     0.703000000    -0.300000000     2.918000000
O     1.315000000    -1.054000000     4.695000000
C     1.952000000    -1.854000000     3.784000000
C     1.263000000    -2.963000000     3.273000000
H     0.309000000    -3.268000000     3.696000000
C     1.801000000    -3.733000000     2.226000000
O     1.079000000    -4.746000000     1.721000000
C     3.087000000    -3.470000000     1.768000000
C     3.736000000    -4.131000000     0.581000000
H     4.817000000    -4.099000000     0.734000000
C     3.187000000    -3.533000000    -0.730000000
C     3.947000000    -2.481000000    -1.327000000
H     4.901000000    -2.171000000    -0.909000000
H     3.539000000    -5.202000000     0.662000000
C     3.750000000    -2.396000000     2.294000000
H     4.761000000    -2.206000000     1.944000000
C     3.199000000    -1.530000000     3.295000000
C     3.930000000    -0.324000000     3.824000000
H     4.993000000    -0.503000000     3.648000000
H     3.742000000    -0.188000000     4.891000000
C     3.492000000     0.906000000     3.013000000
C     4.285000000     1.369000000     1.944000000
H     5.102000000     0.731000000     1.615000000
C     2.328000000     1.631000000     3.331000000
C     2.030000000     2.778000000     2.629000000
H     1.164000000     3.326000000     2.992000000
C     2.846000000     3.247000000     1.597000000
O     2.406000000     4.307000000     0.829000000
C     1.642000000     4.021000000    -0.271000000
C     0.447000000     4.934000000    -0.326000000
C    -0.125000000     5.179000000    -1.584000000
H     0.262000000     4.792000000    -2.523000000
C    -0.230000000     5.232000000     0.830000000
H     0.156000000     4.837000000     1.767000000
O     2.496000000     4.151000000    -1.471000000
H     1.263000000     2.993000000    -0.182000000
C     3.950000000     2.514000000     1.206000000
C     4.825000000     2.901000000    -0.011000000
H     5.810000000     2.462000000     0.159000000
H     5.003000000     3.978000000    -0.032000000
C     4.171000000     2.358000000    -1.223000000
C     4.605000000     1.096000000    -1.647000000
H     5.348000000     0.532000000    -1.089000000
C     3.110000000     3.034000000    -1.912000000
C     2.604000000     2.517000000    -3.105000000
H     1.815000000     3.008000000    -3.668000000
C     3.061000000     1.265000000    -3.460000000
O     2.202000000     0.696000000    -4.345000000
C     1.205000000    -0.118000000    -3.763000000
C    -0.137000000     0.034000000    -4.480000000
C    -0.517000000     1.291000000    -5.003000000
H     0.045000000     2.207000000    -4.838000000
C    -1.052000000    -1.034000000    -4.629000000
H    -0.965000000    -2.017000000    -4.172000000
O     1.623000000    -1.404000000    -4.035000000
H     0.874000000     0.144000000    -2.747000000
C     4.030000000     0.557000000    -2.795000000
C     4.437000000    -0.860000000    -3.241000000
H     5.430000000    -1.158000000    -2.898000000
H     4.294000000    -0.931000000    -4.321000000
C     3.522000000    -1.933000000    -2.550000000
C     2.218000000    -2.173000000    -3.060000000
C     1.482000000    -3.074000000    -2.338000000
H     0.461000000    -3.200000000    -2.690000000
C     1.899000000    -3.817000000    -1.293000000
O     1.113000000    -4.763000000    -0.681000000
C     0.336000000    -4.332000000     0.526000000
H     0.225000000    -3.238000000     0.540000000
C    -1.049000000    -4.946000000     0.516000000
C    -1.697000000    -5.481000000     1.588000000
H    -1.208000000    -5.618000000     2.549000000
C    -1.755000000    -4.880000000    -0.722000000
H    -1.232000000    -4.484000000    -1.589000000
C    -3.105000000    -5.137000000    -0.777000000
O    -3.903000000    -4.939000000    -1.917000000
C    -3.827000000    -5.519000000     0.383000000
H    -4.908000000    -5.633000000     0.349000000
C    -3.065000000    -5.742000000     1.515000000
O    -3.642000000    -6.075000000     2.702000000
C    -3.333000000    -5.352000000     3.889000000
C    -3.632000000    -4.006000000     3.928000000
H    -4.012000000    -3.571000000     3.007000000
C    -2.595000000    -5.945000000     4.833000000
H    -2.215000000    -6.963000000     4.805000000
C    -2.315000000    -5.211000000     5.958000000
H    -1.653000000    -5.625000000     6.715000000
C    -2.729000000    -3.886000000     6.125000000
H    -2.454000000    -3.349000000     7.029000000
C    -3.404000000    -3.306000000     5.050000000
O    -3.786000000    -1.904000000     5.063000000
C    -2.911000000    -0.851000000     4.864000000
C    -3.461000000     0.397000000     4.829000000
H    -4.542000000     0.464000000     4.926000000
C    -2.672000000     1.578000000     4.745000000
O    -3.202000000     2.833000000     4.725000000
C    -2.545000000     4.013000000     4.464000000
C    -2.741000000     4.697000000     3.248000000
H    -3.350000000     4.258000000     2.462000000
C    -1.813000000     4.543000000     5.466000000
H    -1.845000000     4.042000000     6.430000000
C    -1.133000000     5.725000000     5.277000000
H    -0.443000000     6.019000000     6.063000000
C    -1.150000000     6.401000000     4.030000000
H    -0.498000000     7.227000000     3.759000000
C    -1.958000000     5.822000000     3.065000000
O    -1.943000000     6.489000000     1.877000000
C    -1.394000000     5.964000000     0.725000000
C    -1.944000000     6.297000000    -0.497000000
H    -2.841000000     6.910000000    -0.516000000
C    -1.382000000     5.857000000    -1.660000000
O    -1.999000000     6.050000000    -2.899000000
C    -1.611000000     5.577000000    -4.082000000
C    -2.071000000     4.302000000    -4.603000000
H    -2.621000000     3.581000000    -4.004000000
C    -1.002000000     6.508000000    -4.981000000
H    -0.758000000     7.494000000    -4.593000000
C    -0.889000000     6.210000000    -6.332000000
H    -0.590000000     6.914000000    -7.104000000
C    -1.148000000     4.882000000    -6.700000000
H    -1.120000000     4.759000000    -7.780000000
C    -1.764000000     3.933000000    -5.905000000
O    -2.057000000     2.680000000    -6.385000000
C    -1.716000000     1.389000000    -5.787000000
C    -2.605000000     0.335000000    -5.891000000
H    -3.482000000     0.485000000    -6.515000000
C    -2.294000000    -0.861000000    -5.270000000
O    -3.166000000    -1.921000000    -5.557000000
C    -2.984000000    -3.179000000    -5.039000000
C    -2.323000000    -4.228000000    -5.669000000
H    -1.885000000    -4.117000000    -6.657000000
C    -2.180000000    -5.491000000    -5.089000000
H    -1.652000000    -6.275000000    -5.626000000
C    -2.736000000    -5.752000000    -3.826000000
H    -2.614000000    -6.707000000    -3.321000000
C    -3.331000000    -4.698000000    -3.180000000
C    -3.514000000    -3.439000000    -3.744000000
H    -4.027000000    -2.618000000    -3.250000000
C    -3.121000000    -1.290000000     0.716000000
H    -3.582000000    -2.262000000     0.563000000
C    -1.773000000    -1.179000000     0.595000000
H    -1.164000000    -2.052000000     0.375000000
C    -1.194000000     0.082000000     0.808000000
H    -0.114000000     0.126000000     0.674000000
C    -1.974000000     1.224000000     1.161000000
H    -1.497000000     2.142000000     1.494000000
C    -3.328000000     1.067000000     1.395000000
H    -3.913000000     1.926000000     1.713000000
C    -3.964000000    -0.176000000     1.057000000
C    -5.450000000    -0.294000000     1.169000000
O    -6.284000000     0.500000000     1.710000000
O    -5.917000000    -1.306000000     0.638000000
O    -2.801000000    -0.135000000    -2.331000000
H    -3.651000000     0.230000000    -2.085000000
H    -2.445000000    -0.485000000    -1.515000000
O    -7.955000000    -1.374000000     2.690000000
H    -7.500000000    -0.573000000     2.429000000
H    -7.454000000    -2.079000000     2.280000000
O    -6.882000000     2.163000000    -0.079000000
H    -7.190000000     2.965000000     0.342000000
H    -6.712000000     1.562000000     0.646000000
O    -9.074000000     0.325000000    -1.431000000
H    -8.829000000     1.002000000    -0.801000000
H    -8.716000000     0.633000000    -2.264000000
O   -10.169000000     1.733000000     1.314000000
H   -10.347000000     1.153000000     2.054000000
H    -9.453000000     2.292000000     1.614000000
O   -10.196000000    -2.751000000     3.802000000
H    -9.452000000    -2.200000000     3.557000000
H   -10.073000000    -3.557000000     3.300000000
O    -7.271000000    -2.073000000     5.140000000
H    -7.693000000    -1.846000000     4.312000000
H    -6.346000000    -2.177000000     4.917000000
O    -7.792000000     4.564000000     3.074000000
H    -8.069000000     4.560000000     2.158000000
H    -6.966000000     5.049000000     3.072000000
O    -5.252000000     1.401000000    -2.155000000
H    -5.312000000     2.162000000    -2.733000000
H    -5.593000000     1.711000000    -1.316000000
O   -10.642000000     2.872000000    -1.224000000
H   -10.511000000     2.400000000    -0.402000000
H   -11.363000000     2.411000000    -1.653000000
O    -6.029000000    -1.464000000    -2.014000000
H    -5.770000000    -0.568000000    -2.229000000
H    -5.969000000    -1.509000000    -1.060000000
O   -10.642000000     1.761000000     4.224000000
H    -9.717000000     1.883000000     4.435000000
H   -11.103000000     2.361000000     4.810000000
O    -7.429000000     1.757000000     3.986000000
H    -7.750000000     2.553000000     3.562000000
H    -6.905000000     1.322000000     3.313000000
O    -9.793000000    -2.111000000    -0.615000000
H    -9.350000000    -1.309000000    -0.893000000
H   -10.710000000    -1.971000000    -0.849000000
O    -7.452000000    -0.701000000    -4.414000000
H    -6.652000000    -1.077000000    -4.782000000
H    -7.386000000    -0.870000000    -3.474000000
O    -9.837000000    -4.554000000     1.224000000
H    -9.101000000    -4.053000000     0.872000000
H   -10.583000000    -4.299000000     0.681000000
O    -8.821000000     4.106000000     0.676000000
H    -9.188000000     4.989000000     0.628000000
H    -8.892000000     3.769000000    -0.217000000
O    -6.648000000     0.715000000     6.550000000
H    -6.859000000     1.071000000     5.687000000
H    -7.388000000     0.970000000     7.102000000
O    -7.463000000    -3.556000000     0.283000000
H    -6.751000000    -2.918000000     0.328000000
H    -8.092000000    -3.171000000    -0.327000000
