215
-1442.71416
C    -1.260000000     1.135000000     4.704000000
H    -0.729000000     1.980000000     4.274000000
C    -0.529000000    -0.064000000     4.825000000
C    -1.231000000    -1.149000000     5.309000000
H    -0.746000000    -2.114000000     5.437000000
C     0.929000000    -0.116000000     4.349000000
O     1.595000000     1.098000000     4.582000000
H     0.968000000    -0.233000000     3.256000000
O     1.614000000    -1.251000000     4.926000000
C     2.216000000    -1.893000000     3.923000000
C     1.471000000    -2.813000000     3.247000000
H     0.507000000    -3.075000000     3.675000000
C     1.898000000    -3.410000000     2.093000000
O     1.054000000    -4.310000000     1.432000000
C     3.198000000    -3.133000000     1.563000000
C     3.679000000    -3.893000000     0.306000000
H     4.765000000    -3.779000000     0.266000000
C     3.229000000    -3.293000000    -0.999000000
C     4.076000000    -2.370000000    -1.606000000
H     4.941000000    -1.989000000    -1.068000000
H     3.440000000    -4.957000000     0.358000000
C     3.925000000    -2.151000000     2.246000000
H     4.919000000    -1.846000000     1.929000000
C     3.384000000    -1.413000000     3.290000000
C     4.108000000    -0.208000000     3.854000000
H     5.158000000    -0.247000000     3.558000000
H     3.979000000    -0.224000000     4.938000000
C     3.577000000     1.041000000     3.245000000
C     4.274000000     1.553000000     2.110000000
H     5.258000000     1.155000000     1.878000000
C     2.334000000     1.652000000     3.585000000
C     1.833000000     2.700000000     2.946000000
H     0.945000000     3.179000000     3.350000000
C     2.508000000     3.197000000     1.803000000
O     1.931000000     4.202000000     1.117000000
C     1.253000000     3.951000000    -0.166000000
C    -0.064000000     4.636000000    -0.250000000
C    -0.713000000     4.814000000    -1.441000000
H    -0.167000000     4.455000000    -2.310000000
C    -0.750000000     5.019000000     0.877000000
H    -0.259000000     4.858000000     1.833000000
O     2.199000000     4.278000000    -1.208000000
H     1.072000000     2.866000000    -0.142000000
C     3.695000000     2.565000000     1.350000000
C     4.522000000     3.062000000     0.130000000
H     5.532000000     2.710000000     0.353000000
H     4.558000000     4.153000000     0.130000000
C     4.013000000     2.586000000    -1.183000000
C     4.523000000     1.437000000    -1.713000000
H     5.361000000     1.012000000    -1.166000000
C     2.914000000     3.176000000    -1.752000000
C     2.391000000     2.630000000    -2.964000000
H     1.689000000     3.123000000    -3.631000000
C     3.030000000     1.485000000    -3.543000000
O     2.295000000     0.905000000    -4.578000000
C     1.496000000    -0.127000000    -4.140000000
C     0.080000000     0.112000000    -4.615000000
C    -0.390000000     1.343000000    -5.114000000
H     0.243000000     2.227000000    -5.142000000
C    -0.840000000    -0.992000000    -4.694000000
H    -0.533000000    -1.926000000    -4.229000000
O     2.048000000    -1.420000000    -4.507000000
H     1.500000000    -0.021000000    -3.045000000
C     3.943000000     0.748000000    -2.846000000
C     4.582000000    -0.559000000    -3.319000000
H     5.608000000    -0.628000000    -2.950000000
H     4.481000000    -0.702000000    -4.397000000
C     3.717000000    -1.730000000    -2.832000000
C     2.533000000    -2.105000000    -3.413000000
C     1.668000000    -3.040000000    -2.789000000
H     0.664000000    -3.233000000    -3.159000000
C     2.041000000    -3.634000000    -1.579000000
O     1.118000000    -4.431000000    -0.882000000
C     0.394000000    -3.891000000     0.244000000
H     0.375000000    -2.792000000     0.301000000
C    -1.060000000    -4.415000000     0.144000000
C    -1.838000000    -4.571000000     1.348000000
H    -1.460000000    -4.370000000     2.347000000
C    -1.652000000    -4.589000000    -1.127000000
H    -1.017000000    -4.548000000    -2.008000000
C    -2.953000000    -5.081000000    -1.256000000
O    -3.447000000    -5.609000000    -2.375000000
C    -3.772000000    -5.189000000    -0.126000000
H    -4.813000000    -5.491000000    -0.206000000
C    -3.185000000    -4.872000000     1.120000000
O    -4.097000000    -4.902000000     2.177000000
C    -3.695000000    -4.753000000     3.513000000
C    -3.775000000    -3.477000000     4.099000000
H    -4.109000000    -2.607000000     3.539000000
C    -3.311000000    -5.898000000     4.233000000
H    -3.404000000    -6.913000000     3.855000000
C    -2.919000000    -5.719000000     5.593000000
H    -2.484000000    -6.518000000     6.188000000
C    -2.867000000    -4.470000000     6.171000000
H    -2.532000000    -4.289000000     7.189000000
C    -3.312000000    -3.349000000     5.416000000
O    -3.347000000    -2.164000000     6.090000000
C    -2.629000000    -1.084000000     5.634000000
C    -3.255000000     0.115000000     5.502000000
H    -4.260000000     0.276000000     5.882000000
C    -2.539000000     1.224000000     5.075000000
O    -3.233000000     2.416000000     4.903000000
C    -2.706000000     3.617000000     4.716000000
C    -3.187000000     4.289000000     3.571000000
H    -3.974000000     3.896000000     2.932000000
C    -1.662000000     4.020000000     5.503000000
H    -1.284000000     3.368000000     6.287000000
C    -1.168000000     5.329000000     5.230000000
H    -0.454000000     5.808000000     5.895000000
C    -1.589000000     6.064000000     4.064000000
H    -0.965000000     6.884000000     3.717000000
C    -2.550000000     5.477000000     3.259000000
O    -2.695000000     6.039000000     2.006000000
C    -2.023000000     5.614000000     0.828000000
C    -2.629000000     5.811000000    -0.381000000
H    -3.620000000     6.238000000    -0.512000000
C    -2.002000000     5.337000000    -1.530000000
O    -2.630000000     5.467000000    -2.703000000
C    -2.030000000     5.235000000    -3.913000000
C    -2.446000000     4.080000000    -4.614000000
H    -3.221000000     3.432000000    -4.212000000
C    -1.162000000     6.156000000    -4.434000000
H    -0.967000000     7.076000000    -3.889000000
C    -0.603000000     5.947000000    -5.639000000
H     0.071000000     6.669000000    -6.092000000
C    -0.783000000     4.719000000    -6.253000000
H    -0.265000000     4.484000000    -7.179000000
C    -1.726000000     3.829000000    -5.789000000
O    -1.849000000     2.610000000    -6.465000000
C    -1.534000000     1.449000000    -5.834000000
C    -2.382000000     0.308000000    -6.045000000
H    -3.142000000     0.280000000    -6.821000000
C    -2.025000000    -0.869000000    -5.422000000
O    -3.039000000    -1.811000000    -5.262000000
C    -2.730000000    -3.127000000    -5.034000000
C    -1.788000000    -3.828000000    -5.800000000
H    -1.238000000    -3.293000000    -6.570000000
C    -1.434000000    -5.145000000    -5.454000000
H    -0.724000000    -5.627000000    -6.122000000
C    -1.967000000    -5.761000000    -4.323000000
H    -1.702000000    -6.747000000    -3.951000000
C    -2.913000000    -5.117000000    -3.570000000
C    -3.362000000    -3.818000000    -4.032000000
H    -4.002000000    -3.417000000    -3.250000000
C    -3.149000000    -1.328000000    -0.523000000
H    -3.736000000    -1.957000000    -1.188000000
C    -1.884000000    -1.078000000    -1.053000000
H    -1.418000000    -1.575000000    -1.900000000
C    -1.062000000    -0.059000000    -0.518000000
H    -0.053000000     0.129000000    -0.875000000
C    -1.426000000     0.523000000     0.671000000
H    -0.763000000     1.197000000     1.207000000
C    -2.640000000     0.260000000     1.313000000
H    -2.864000000     0.719000000     2.272000000
C    -3.524000000    -0.675000000     0.700000000
C    -4.773000000    -1.010000000     1.381000000
O    -5.076000000    -0.505000000     2.491000000
O    -5.585000000    -1.667000000     0.725000000
O    -2.876000000     1.910000000    -1.704000000
H    -2.363000000     1.226000000    -1.274000000
H    -2.223000000     2.485000000    -2.101000000
O    -8.026000000     0.114000000     2.889000000
H    -7.132000000    -0.056000000     3.185000000
H    -8.020000000    -0.122000000     1.961000000
O    -5.658000000     2.175000000     2.892000000
H    -5.486000000     2.516000000     2.014000000
H    -5.558000000     1.227000000     2.805000000
O    -8.377000000    -4.737000000    -0.084000000
H    -8.594000000    -4.233000000     0.701000000
H    -7.812000000    -4.156000000    -0.593000000
O    -5.831000000    -7.726000000     1.547000000
H    -5.636000000    -8.507000000     2.066000000
H    -5.539000000    -6.997000000     2.095000000
O    -7.008000000    -3.325000000     4.405000000
H    -7.916000000    -3.585000000     4.556000000
H    -6.490000000    -3.986000000     4.864000000
O    -9.899000000     2.020000000     3.764000000
H    -9.293000000     1.384000000     3.383000000
H   -10.024000000     2.673000000     3.076000000
O    -5.616000000     0.067000000    -3.238000000
H    -5.172000000     0.509000000    -2.515000000
H    -6.545000000     0.117000000    -3.016000000
O    -8.688000000     0.395000000    -3.280000000
H    -8.676000000     0.486000000    -4.233000000
H    -9.538000000     0.000000000    -3.088000000
O    -9.411000000    -1.989000000     4.221000000
H    -9.841000000    -2.687000000     3.727000000
H    -9.229000000    -1.312000000     3.570000000
O    -7.473000000     0.282000000     0.307000000
H    -6.756000000    -0.314000000     0.525000000
H    -7.041000000     1.059000000    -0.045000000
O    -6.208000000     1.883000000     5.699000000
H    -6.185000000     0.926000000     5.685000000
H    -5.875000000     2.143000000     4.841000000
O    -6.028000000    -0.832000000     4.868000000
H    -6.289000000    -1.752000000     4.910000000
H    -5.433000000    -0.785000000     4.120000000
O    -5.513000000     2.289000000    -0.650000000
H    -4.588000000     2.238000000    -0.890000000
H    -5.815000000     3.114000000    -1.029000000
O    -7.251000000     4.505000000     3.090000000
H    -8.122000000     4.561000000     2.697000000
H    -7.050000000     3.569000000     3.094000000
O    -6.628000000    -2.736000000    -1.524000000
H    -6.199000000    -2.398000000    -0.738000000
H    -5.983000000    -2.611000000    -2.220000000
O   -10.279000000    -0.230000000    -0.432000000
H   -10.718000000    -1.009000000    -0.092000000
H    -9.378000000    -0.307000000    -0.120000000
O    -7.619000000    -1.026000000     6.916000000
H    -7.162000000    -0.848000000     6.094000000
H    -7.566000000    -0.204000000     7.403000000
O    -7.632000000    -2.904000000     1.705000000
H    -6.920000000    -2.393000000     1.320000000
H    -7.376000000    -3.021000000     2.620000000
