215
-1457.09357
C    -1.251000000     1.541000000     4.773000000
H    -0.695000000     2.426000000     4.471000000
C    -0.685000000     0.308000000     4.395000000
C    -1.490000000    -0.825000000     4.469000000
H    -1.086000000    -1.770000000     4.117000000
C     0.725000000     0.202000000     3.956000000
O     1.481000000     1.373000000     4.398000000
H     0.726000000     0.098000000     2.861000000
O     1.407000000    -0.968000000     4.423000000
C     2.153000000    -1.723000000     3.561000000
C     1.670000000    -2.915000000     3.069000000
H     0.772000000    -3.370000000     3.477000000
C     2.366000000    -3.586000000     2.074000000
O     1.772000000    -4.698000000     1.501000000
C     3.528000000    -2.992000000     1.530000000
C     4.247000000    -3.637000000     0.355000000
H     5.327000000    -3.512000000     0.460000000
C     3.653000000    -3.255000000    -0.956000000
C     4.098000000    -2.097000000    -1.584000000
H     4.819000000    -1.425000000    -1.124000000
H     4.257000000    -4.708000000     0.570000000
C     4.107000000    -1.831000000     2.044000000
H     5.049000000    -1.458000000     1.651000000
C     3.369000000    -1.175000000     3.028000000
C     4.017000000     0.022000000     3.710000000
H     5.104000000     0.015000000     3.599000000
H     3.844000000     0.066000000     4.787000000
C     3.504000000     1.290000000     3.064000000
C     4.206000000     1.737000000     1.932000000
H     5.102000000     1.204000000     1.626000000
C     2.352000000     1.980000000     3.473000000
C     1.904000000     3.090000000     2.788000000
H     0.967000000     3.540000000     3.104000000
C     2.541000000     3.450000000     1.632000000
O     1.992000000     4.445000000     0.910000000
C     1.316000000     4.239000000    -0.337000000
C    -0.072000000     4.950000000    -0.418000000
C    -0.625000000     5.252000000    -1.671000000
H    -0.183000000     4.926000000    -2.609000000
C    -0.715000000     5.271000000     0.771000000
H    -0.329000000     5.031000000     1.759000000
O     2.301000000     4.434000000    -1.427000000
H     1.031000000     3.177000000    -0.358000000
C     3.758000000     2.832000000     1.199000000
C     4.525000000     3.287000000    -0.058000000
H     5.572000000     2.981000000     0.001000000
H     4.431000000     4.368000000    -0.178000000
C     3.879000000     2.632000000    -1.362000000
C     4.315000000     1.420000000    -1.845000000
H     5.151000000     0.844000000    -1.455000000
C     2.832000000     3.330000000    -1.995000000
C     2.116000000     2.728000000    -2.982000000
H     1.215000000     3.186000000    -3.381000000
C     2.558000000     1.467000000    -3.482000000
O     1.768000000     0.817000000    -4.382000000
C     0.969000000    -0.297000000    -3.744000000
C    -0.493000000    -0.208000000    -4.121000000
C    -0.982000000     1.013000000    -4.616000000
H    -0.310000000     1.856000000    -4.754000000
C    -1.295000000    -1.345000000    -4.000000000
H    -0.904000000    -2.205000000    -3.462000000
O     1.610000000    -1.531000000    -4.169000000
H     1.094000000    -0.180000000    -2.658000000
C     3.756000000     0.901000000    -2.971000000
C     4.254000000    -0.427000000    -3.456000000
H     5.336000000    -0.528000000    -3.344000000
H     4.096000000    -0.416000000    -4.537000000
C     3.553000000    -1.604000000    -2.764000000
C     2.378000000    -2.180000000    -3.208000000
C     1.874000000    -3.377000000    -2.640000000
H     0.936000000    -3.795000000    -2.997000000
C     2.487000000    -3.864000000    -1.494000000
O     1.906000000    -4.934000000    -0.806000000
C     1.121000000    -4.514000000     0.281000000
H     0.903000000    -3.448000000     0.119000000
C    -0.250000000    -5.102000000     0.228000000
C    -0.972000000    -5.223000000     1.417000000
H    -0.533000000    -4.948000000     2.373000000
C    -0.804000000    -5.496000000    -0.984000000
H    -0.253000000    -5.396000000    -1.916000000
C    -2.112000000    -6.054000000    -1.002000000
O    -2.703000000    -6.501000000    -2.139000000
C    -2.792000000    -6.153000000     0.183000000
H    -3.839000000    -6.415000000     0.313000000
C    -2.253000000    -5.744000000     1.396000000
O    -2.967000000    -5.762000000     2.613000000
C    -2.715000000    -5.147000000     3.834000000
C    -3.285000000    -3.875000000     4.044000000
H    -3.998000000    -3.477000000     3.326000000
C    -1.784000000    -5.676000000     4.702000000
H    -1.282000000    -6.584000000     4.378000000
C    -1.431000000    -4.951000000     5.902000000
H    -0.684000000    -5.248000000     6.634000000
C    -2.055000000    -3.710000000     6.119000000
H    -1.716000000    -3.023000000     6.890000000
C    -2.947000000    -3.162000000     5.208000000
O    -3.474000000    -1.903000000     5.352000000
C    -2.762000000    -0.827000000     5.061000000
C    -3.326000000     0.448000000     5.277000000
H    -4.397000000     0.506000000     5.456000000
C    -2.626000000     1.628000000     5.190000000
O    -3.210000000     2.814000000     5.322000000
C    -2.690000000     4.013000000     4.772000000
C    -2.910000000     4.351000000     3.469000000
H    -3.490000000     3.740000000     2.783000000
C    -1.884000000     4.853000000     5.687000000
H    -1.741000000     4.653000000     6.746000000
C    -1.436000000     6.065000000     5.210000000
H    -1.005000000     6.800000000     5.885000000
C    -1.740000000     6.442000000     3.902000000
H    -1.458000000     7.411000000     3.498000000
C    -2.455000000     5.623000000     3.066000000
O    -2.761000000     6.068000000     1.785000000
C    -1.994000000     5.811000000     0.660000000
C    -2.542000000     6.243000000    -0.557000000
H    -3.497000000     6.749000000    -0.677000000
C    -1.878000000     5.905000000    -1.725000000
O    -2.462000000     6.272000000    -2.958000000
C    -2.219000000     5.526000000    -4.114000000
C    -2.515000000     4.132000000    -4.221000000
H    -3.012000000     3.695000000    -3.359000000
C    -1.551000000     6.124000000    -5.143000000
H    -1.281000000     7.176000000    -5.088000000
C    -1.315000000     5.395000000    -6.330000000
H    -0.839000000     5.846000000    -7.197000000
C    -1.829000000     4.106000000    -6.464000000
H    -1.593000000     3.529000000    -7.354000000
C    -2.448000000     3.480000000    -5.367000000
O    -2.970000000     2.216000000    -5.424000000
C    -2.331000000     1.066000000    -4.961000000
C    -3.105000000    -0.036000000    -4.847000000
H    -4.089000000    -0.014000000    -5.308000000
C    -2.601000000    -1.262000000    -4.478000000
O    -3.453000000    -2.365000000    -4.332000000
C    -3.097000000    -3.710000000    -4.473000000
C    -2.988000000    -4.260000000    -5.689000000
H    -3.095000000    -3.707000000    -6.618000000
C    -2.739000000    -5.653000000    -5.739000000
H    -2.589000000    -6.159000000    -6.690000000
C    -2.596000000    -6.407000000    -4.527000000
H    -2.524000000    -7.491000000    -4.568000000
C    -2.842000000    -5.829000000    -3.331000000
C    -3.086000000    -4.449000000    -3.343000000
H    -3.131000000    -3.964000000    -2.371000000
C    -1.366000000    -1.409000000     0.602000000
H    -1.515000000    -2.485000000     0.589000000
C    -0.199000000    -0.897000000     0.143000000
H     0.534000000    -1.557000000    -0.314000000
C     0.032000000     0.490000000     0.249000000
H     0.967000000     0.847000000    -0.217000000
C    -0.944000000     1.351000000     0.741000000
H    -0.734000000     2.411000000     0.860000000
C    -2.112000000     0.804000000     1.264000000
H    -2.798000000     1.481000000     1.767000000
C    -2.437000000    -0.599000000     1.044000000
C    -3.700000000    -1.267000000     1.439000000
O    -4.500000000    -0.524000000     1.983000000
O    -3.969000000    -2.431000000     1.283000000
O    -5.910000000    -7.123000000     3.389000000
H    -5.435000000    -7.859000000     3.004000000
H    -5.783000000    -6.405000000     2.770000000
O    -3.280000000     1.253000000    -1.789000000
H    -3.345000000     0.520000000    -2.402000000
H    -2.464000000     1.096000000    -1.313000000
O    -6.659000000    -2.287000000     3.207000000
H    -5.763000000    -2.072000000     2.950000000
H    -7.132000000    -2.377000000     2.380000000
O    -6.197000000     4.482000000     1.389000000
H    -5.302000000     4.294000000     1.107000000
H    -6.738000000     4.263000000     0.630000000
O    -6.474000000     0.167000000     0.002000000
H    -6.950000000     0.837000000     0.493000000
H    -5.752000000    -0.085000000     0.577000000
O    -8.733000000    -0.510000000     4.484000000
H    -8.263000000     0.273000000     4.768000000
H    -8.061000000    -1.061000000     4.083000000
O    -6.966000000    -6.681000000    -0.362000000
H    -6.559000000    -6.009000000     0.186000000
H    -7.036000000    -6.275000000    -1.226000000
O    -6.352000000    -2.000000000     6.133000000
H    -6.593000000    -1.913000000     5.211000000
H    -5.521000000    -2.476000000     6.119000000
O    -6.960000000     0.835000000    -2.382000000
H    -6.579000000     1.701000000    -2.529000000
H    -6.540000000     0.521000000    -1.582000000
O    -7.721000000    -4.622000000     3.940000000
H    -7.269000000    -3.857000000     3.582000000
H    -7.642000000    -5.288000000     3.257000000
O    -5.137000000    -2.371000000    -1.207000000
H    -5.239000000    -1.423000000    -1.295000000
H    -4.544000000    -2.480000000    -0.463000000
O    -5.908000000     1.170000000     3.322000000
H    -6.402000000     1.410000000     2.538000000
H    -5.246000000     0.554000000     3.010000000
O    -4.457000000     3.529000000    -0.382000000
H    -3.925000000     3.001000000    -0.977000000
H    -5.004000000     4.063000000    -0.959000000
O    -6.764000000    -4.311000000    -2.059000000
H    -6.050000000    -3.764000000    -1.732000000
H    -7.214000000    -3.761000000    -2.700000000
O    -7.972000000    -1.493000000    -3.486000000
H    -7.704000000    -1.529000000    -4.404000000
H    -7.451000000    -0.784000000    -3.110000000
O    -7.693000000    -2.440000000     0.842000000
H    -8.591000000    -2.326000000     0.529000000
H    -7.164000000    -2.473000000     0.045000000
O    -7.927000000     1.876000000     1.535000000
H    -8.793000000     1.487000000     1.414000000
H    -7.884000000     2.573000000     0.880000000
O    -7.135000000     1.531000000     5.774000000
H    -6.548000000     1.501000000     5.019000000
H    -6.743000000     0.929000000     6.406000000
O    -5.786000000    -4.576000000     1.417000000
H    -4.961000000    -4.093000000     1.358000000
H    -6.455000000    -3.897000000     1.501000000
