215
-1453.43283
C    -1.962000000     1.410000000     4.512000000
H    -1.280000000     2.206000000     4.224000000
C    -1.542000000     0.073000000     4.624000000
C    -2.462000000    -1.032000000     4.575000000
H    -2.051000000    -2.038000000     4.551000000
C    -0.091000000    -0.264000000     4.328000000
O     0.763000000     0.657000000     5.007000000
H     0.016000000    -0.259000000     3.233000000
O     0.264000000    -1.582000000     4.747000000
C     1.062000000    -2.306000000     3.942000000
C     0.453000000    -3.251000000     3.101000000
H    -0.620000000    -3.412000000     3.173000000
C     1.207000000    -3.972000000     2.217000000
O     0.367000000    -4.586000000     1.363000000
C     2.559000000    -3.684000000     2.013000000
C     3.368000000    -4.401000000     0.941000000
H     4.422000000    -4.406000000     1.227000000
C     3.205000000    -3.772000000    -0.473000000
C     4.034000000    -2.746000000    -0.882000000
H     4.860000000    -2.505000000    -0.219000000
H     3.067000000    -5.445000000     0.833000000
C     3.167000000    -2.740000000     2.829000000
H     4.238000000    -2.565000000     2.757000000
C     2.440000000    -2.033000000     3.772000000
C     3.191000000    -0.918000000     4.555000000
H     4.254000000    -1.166000000     4.579000000
H     2.939000000    -0.921000000     5.617000000
C     2.944000000     0.396000000     3.912000000
C     3.834000000     0.894000000     2.959000000
H     4.762000000     0.329000000     2.914000000
C     1.821000000     1.136000000     4.231000000
C     1.629000000     2.316000000     3.497000000
H     0.715000000     2.900000000     3.562000000
C     2.502000000     2.781000000     2.555000000
O     2.146000000     3.912000000     1.865000000
C     1.740000000     3.786000000     0.479000000
C     0.719000000     4.810000000     0.189000000
C     0.634000000     5.381000000    -1.093000000
H     1.362000000     5.047000000    -1.829000000
C    -0.272000000     5.166000000     1.052000000
H    -0.362000000     4.708000000     2.033000000
O     2.860000000     3.924000000    -0.393000000
H     1.325000000     2.783000000     0.301000000
C     3.629000000     2.098000000     2.252000000
C     4.690000000     2.463000000     1.234000000
H     5.594000000     1.998000000     1.633000000
H     4.887000000     3.537000000     1.226000000
C     4.270000000     1.959000000    -0.104000000
C     4.894000000     0.755000000    -0.582000000
H     5.539000000     0.229000000     0.117000000
C     3.347000000     2.709000000    -0.870000000
C     3.010000000     2.234000000    -2.081000000
H     2.318000000     2.819000000    -2.682000000
C     3.550000000     1.043000000    -2.590000000
O     2.927000000     0.624000000    -3.749000000
C     1.851000000    -0.358000000    -3.684000000
C     0.678000000     0.034000000    -4.556000000
C     0.130000000     1.305000000    -4.427000000
H     0.600000000     2.068000000    -3.812000000
C    -0.090000000    -0.947000000    -5.253000000
H     0.304000000    -1.960000000    -5.247000000
O     2.416000000    -1.655000000    -3.948000000
H     1.409000000    -0.314000000    -2.678000000
C     4.501000000     0.239000000    -1.839000000
C     4.981000000    -1.096000000    -2.365000000
H     5.863000000    -1.394000000    -1.794000000
H     5.242000000    -0.951000000    -3.415000000
C     3.943000000    -2.152000000    -2.130000000
C     2.842000000    -2.400000000    -2.881000000
C     1.899000000    -3.403000000    -2.562000000
H     0.994000000    -3.422000000    -3.164000000
C     2.040000000    -4.051000000    -1.301000000
O     0.972000000    -4.730000000    -0.883000000
C     0.030000000    -4.080000000     0.016000000
H    -0.009000000    -2.982000000    -0.029000000
C    -1.337000000    -4.576000000    -0.349000000
C    -2.296000000    -4.779000000     0.630000000
H    -2.069000000    -4.687000000     1.689000000
C    -1.700000000    -4.625000000    -1.680000000
H    -0.939000000    -4.638000000    -2.456000000
C    -3.045000000    -4.871000000    -2.044000000
O    -3.406000000    -5.020000000    -3.405000000
C    -3.996000000    -5.128000000    -1.095000000
H    -5.058000000    -5.252000000    -1.292000000
C    -3.624000000    -5.122000000     0.280000000
O    -4.560000000    -5.163000000     1.305000000
C    -4.454000000    -4.683000000     2.603000000
C    -4.652000000    -3.355000000     2.900000000
H    -4.879000000    -2.640000000     2.114000000
C    -4.111000000    -5.587000000     3.607000000
H    -3.942000000    -6.603000000     3.261000000
C    -4.048000000    -5.249000000     4.900000000
H    -3.835000000    -5.978000000     5.677000000
C    -4.244000000    -3.925000000     5.217000000
H    -4.252000000    -3.572000000     6.245000000
C    -4.566000000    -2.980000000     4.221000000
O    -4.789000000    -1.703000000     4.528000000
C    -3.825000000    -0.775000000     4.477000000
C    -4.231000000     0.534000000     4.469000000
H    -5.293000000     0.689000000     4.298000000
C    -3.351000000     1.642000000     4.439000000
O    -3.867000000     2.976000000     4.338000000
C    -3.160000000     4.165000000     4.219000000
C    -3.154000000     4.851000000     2.992000000
H    -3.536000000     4.359000000     2.101000000
C    -2.337000000     4.629000000     5.303000000
H    -2.402000000     4.196000000     6.298000000
C    -1.700000000     5.841000000     5.153000000
H    -1.183000000     6.342000000     5.967000000
C    -1.693000000     6.527000000     3.978000000
H    -1.151000000     7.460000000     3.847000000
C    -2.417000000     6.019000000     2.948000000
O    -2.179000000     6.595000000     1.691000000
C    -1.216000000     6.190000000     0.758000000
C    -1.137000000     6.894000000    -0.467000000
H    -1.756000000     7.711000000    -0.829000000
C    -0.262000000     6.405000000    -1.424000000
O    -0.200000000     6.868000000    -2.700000000
C    -0.049000000     6.140000000    -3.764000000
C    -0.673000000     4.879000000    -3.811000000
H    -1.230000000     4.414000000    -3.001000000
C     0.515000000     6.635000000    -4.936000000
H     0.897000000     7.653000000    -4.922000000
C     0.549000000     5.873000000    -6.097000000
H     0.936000000     6.344000000    -6.996000000
C    -0.062000000     4.656000000    -6.116000000
H    -0.036000000     4.125000000    -7.064000000
C    -0.684000000     4.146000000    -4.991000000
O    -1.444000000     3.035000000    -5.162000000
C    -0.971000000     1.734000000    -5.206000000
C    -1.691000000     0.761000000    -5.905000000
H    -2.555000000     0.981000000    -6.528000000
C    -1.279000000    -0.577000000    -5.890000000
O    -2.025000000    -1.585000000    -6.464000000
C    -1.920000000    -2.922000000    -6.022000000
C    -1.129000000    -3.870000000    -6.670000000
H    -0.594000000    -3.500000000    -7.541000000
C    -1.129000000    -5.170000000    -6.215000000
H    -0.456000000    -5.848000000    -6.733000000
C    -1.894000000    -5.539000000    -5.134000000
H    -1.833000000    -6.573000000    -4.805000000
C    -2.703000000    -4.616000000    -4.543000000
C    -2.696000000    -3.336000000    -4.918000000
H    -3.414000000    -2.635000000    -4.499000000
C    -2.467000000    -0.754000000    -0.181000000
H    -3.017000000    -1.604000000    -0.578000000
C    -1.075000000    -0.537000000    -0.385000000
H    -0.499000000    -1.208000000    -1.018000000
C    -0.504000000     0.718000000     0.022000000
H     0.546000000     1.017000000    -0.276000000
C    -1.263000000     1.564000000     0.850000000
H    -0.766000000     2.415000000     1.309000000
C    -2.561000000     1.318000000     1.148000000
H    -3.151000000     2.047000000     1.697000000
C    -3.199000000     0.167000000     0.599000000
C    -4.766000000     0.146000000     0.578000000
O    -5.371000000     1.092000000     1.055000000
O    -5.317000000    -0.835000000     0.001000000
O    -8.351000000    -4.504000000     1.647000000
H    -7.836000000    -4.215000000     0.894000000
H    -9.000000000    -3.811000000     1.774000000
O    -3.079000000     3.718000000    -0.975000000
H    -2.175000000     3.582000000    -0.691000000
H    -3.290000000     2.936000000    -1.484000000
O    -9.364000000     2.114000000    -1.623000000
H    -9.590000000     2.912000000    -1.146000000
H    -8.490000000     2.285000000    -1.975000000
O    -6.652000000     2.917000000    -0.590000000
H    -5.901000000     3.493000000    -0.737000000
H    -6.316000000     2.226000000    -0.020000000
O    -7.808000000    -3.187000000     4.013000000
H    -7.461000000    -2.576000000     3.362000000
H    -7.750000000    -4.044000000     3.591000000
O    -7.155000000     2.858000000    -3.176000000
H    -6.805000000     2.806000000    -2.286000000
H    -6.380000000     2.925000000    -3.734000000
O    -9.758000000    -2.323000000     1.713000000
H    -8.932000000    -2.011000000     2.083000000
H   -10.433000000    -1.933000000     2.268000000
O    -8.537000000     2.694000000     4.909000000
H    -7.841000000     2.717000000     4.252000000
H    -8.899000000     1.810000000     4.843000000
O    -6.964000000     2.055000000     2.929000000
H    -7.739000000     1.995000000     2.371000000
H    -6.236000000     2.163000000     2.317000000
O    -5.188000000    -1.046000000    -2.681000000
H    -5.985000000    -1.535000000    -2.887000000
H    -5.358000000    -0.661000000    -1.822000000
O    -7.114000000    -1.236000000     2.099000000
H    -6.580000000    -1.306000000     1.308000000
H    -7.187000000    -0.294000000     2.255000000
O    -4.874000000     5.635000000    -1.815000000
H    -4.168000000     4.996000000    -1.723000000
H    -4.837000000     5.902000000    -2.734000000
O   -10.464000000    -1.234000000    -0.764000000
H   -10.751000000    -2.100000000    -1.052000000
H   -10.345000000    -1.323000000     0.182000000
O    -3.213000000     1.507000000    -2.414000000
H    -3.699000000     1.063000000    -3.109000000
H    -2.542000000     0.877000000    -2.151000000
O    -4.824000000     0.059000000    -4.892000000
H    -4.394000000    -0.694000000    -5.297000000
H    -5.105000000    -0.259000000    -4.033000000
O    -9.870000000    -0.178000000    -3.087000000
H   -10.148000000    -0.776000000    -2.393000000
H    -9.436000000     0.539000000    -2.625000000
O    -9.863000000     1.171000000     1.681000000
H    -9.312000000     0.782000000     1.002000000
H   -10.640000000     1.477000000     1.213000000
O    -7.783000000    -2.041000000    -2.414000000
H    -8.436000000    -1.637000000    -2.985000000
H    -8.293000000    -2.429000000    -1.703000000
O    -6.735000000    -3.213000000    -0.140000000
H    -6.326000000    -2.352000000    -0.229000000
H    -6.201000000    -3.790000000    -0.686000000
