215
-1473.30031
C    -1.596000000     0.892000000     5.175000000
H    -0.816000000     1.638000000     5.301000000
C    -1.234000000    -0.348000000     4.638000000
C    -2.223000000    -1.319000000     4.432000000
H    -1.910000000    -2.298000000     4.077000000
C     0.215000000    -0.589000000     4.172000000
O     1.119000000     0.334000000     4.761000000
H     0.226000000    -0.368000000     3.094000000
O     0.687000000    -1.895000000     4.575000000
C     1.469000000    -2.620000000     3.749000000
C     0.821000000    -3.572000000     2.916000000
H    -0.232000000    -3.765000000     3.109000000
C     1.500000000    -4.027000000     1.821000000
O     0.782000000    -4.821000000     0.998000000
C     2.814000000    -3.736000000     1.603000000
C     3.603000000    -4.186000000     0.408000000
H     4.685000000    -4.087000000     0.518000000
C     3.185000000    -3.368000000    -0.844000000
C     3.910000000    -2.289000000    -1.290000000
H     4.818000000    -2.026000000    -0.753000000
H     3.345000000    -5.224000000     0.191000000
C     3.482000000    -2.848000000     2.487000000
H     4.518000000    -2.566000000     2.315000000
C     2.789000000    -2.262000000     3.525000000
C     3.523000000    -1.131000000     4.204000000
H     4.579000000    -1.395000000     4.286000000
H     3.253000000    -1.122000000     5.262000000
C     3.229000000     0.279000000     3.714000000
C     4.134000000     0.892000000     2.865000000
H     5.091000000     0.435000000     2.627000000
C     1.999000000     0.922000000     3.916000000
C     1.752000000     2.232000000     3.427000000
H     0.947000000     2.836000000     3.837000000
C     2.612000000     2.722000000     2.405000000
O     2.222000000     3.911000000     1.864000000
C     1.684000000     3.864000000     0.470000000
C     0.472000000     4.684000000     0.364000000
C     0.221000000     5.421000000    -0.835000000
H     0.945000000     5.438000000    -1.645000000
C    -0.472000000     4.698000000     1.331000000
H    -0.214000000     4.193000000     2.258000000
O     2.693000000     4.217000000    -0.416000000
H     1.373000000     2.835000000     0.240000000
C     3.821000000     2.070000000     2.152000000
C     4.741000000     2.609000000     1.056000000
H     5.741000000     2.234000000     1.286000000
H     4.897000000     3.689000000     1.094000000
C     4.243000000     2.286000000    -0.364000000
C     4.669000000     1.120000000    -1.043000000
H     5.420000000     0.553000000    -0.499000000
C     3.371000000     3.109000000    -1.035000000
C     2.808000000     2.747000000    -2.253000000
H     2.029000000     3.415000000    -2.611000000
C     3.195000000     1.520000000    -2.862000000
O     2.684000000     1.112000000    -4.025000000
C     1.637000000     0.116000000    -3.922000000
C     0.450000000     0.485000000    -4.762000000
C     0.062000000     1.830000000    -4.926000000
H     0.669000000     2.623000000    -4.496000000
C    -0.336000000    -0.544000000    -5.370000000
H    -0.085000000    -1.599000000    -5.297000000
O     2.128000000    -1.178000000    -4.236000000
H     1.242000000     0.019000000    -2.900000000
C     4.238000000     0.755000000    -2.289000000
C     4.638000000    -0.554000000    -2.886000000
H     5.606000000    -0.927000000    -2.545000000
H     4.763000000    -0.505000000    -3.969000000
C     3.623000000    -1.581000000    -2.414000000
C     2.532000000    -1.926000000    -3.183000000
C     1.785000000    -2.963000000    -2.780000000
H     1.069000000    -3.263000000    -3.541000000
C     2.081000000    -3.707000000    -1.633000000
O     1.186000000    -4.659000000    -1.287000000
C     0.233000000    -4.189000000    -0.225000000
H     0.325000000    -3.098000000    -0.119000000
C    -1.251000000    -4.488000000    -0.520000000
C    -2.100000000    -4.794000000     0.548000000
H    -1.690000000    -4.870000000     1.551000000
C    -1.677000000    -4.395000000    -1.855000000
H    -0.945000000    -4.190000000    -2.632000000
C    -3.098000000    -4.495000000    -2.095000000
O    -3.683000000    -4.340000000    -3.330000000
C    -3.937000000    -4.773000000    -1.015000000
H    -5.015000000    -4.772000000    -1.153000000
C    -3.440000000    -4.957000000     0.260000000
O    -4.331000000    -5.367000000     1.270000000
C    -4.220000000    -5.090000000     2.581000000
C    -4.346000000    -3.761000000     3.026000000
H    -4.629000000    -2.976000000     2.330000000
C    -3.937000000    -6.050000000     3.508000000
H    -3.851000000    -7.078000000     3.164000000
C    -3.902000000    -5.765000000     4.881000000
H    -3.399000000    -6.554000000     5.434000000
C    -4.003000000    -4.451000000     5.329000000
H    -3.828000000    -4.171000000     6.364000000
C    -4.284000000    -3.419000000     4.384000000
O    -4.457000000    -2.087000000     4.851000000
C    -3.484000000    -1.101000000     4.888000000
C    -3.873000000     0.107000000     5.432000000
H    -4.891000000     0.308000000     5.755000000
C    -2.942000000     1.116000000     5.514000000
O    -3.347000000     2.345000000     5.883000000
C    -2.810000000     3.487000000     5.346000000
C    -3.120000000     3.850000000     3.998000000
H    -3.803000000     3.232000000     3.421000000
C    -1.970000000     4.287000000     6.173000000
H    -1.733000000     3.985000000     7.190000000
C    -1.281000000     5.314000000     5.522000000
H    -0.388000000     5.757000000     5.954000000
C    -1.622000000     5.657000000     4.242000000
H    -1.075000000     6.428000000     3.704000000
C    -2.572000000     4.983000000     3.478000000
O    -2.713000000     5.280000000     2.176000000
C    -1.684000000     5.387000000     1.185000000
C    -1.968000000     6.015000000    -0.018000000
H    -2.874000000     6.614000000     0.013000000
C    -1.000000000     6.008000000    -1.031000000
O    -1.250000000     6.637000000    -2.255000000
C    -0.749000000     6.125000000    -3.408000000
C    -1.275000000     4.968000000    -3.984000000
H    -2.139000000     4.528000000    -3.491000000
C     0.299000000     6.785000000    -4.092000000
H     0.592000000     7.709000000    -3.601000000
C     0.822000000     6.307000000    -5.267000000
H     1.519000000     6.913000000    -5.840000000
C     0.248000000     5.161000000    -5.821000000
H     0.481000000     4.797000000    -6.818000000
C    -0.806000000     4.495000000    -5.196000000
O    -1.484000000     3.480000000    -5.866000000
C    -1.087000000     2.146000000    -5.635000000
C    -1.846000000     1.113000000    -6.166000000
H    -2.774000000     1.337000000    -6.684000000
C    -1.500000000    -0.208000000    -6.122000000
O    -2.339000000    -1.152000000    -6.599000000
C    -2.362000000    -2.452000000    -6.149000000
C    -1.761000000    -3.482000000    -6.894000000
H    -1.442000000    -3.229000000    -7.902000000
C    -1.806000000    -4.819000000    -6.451000000
H    -1.329000000    -5.551000000    -7.098000000
C    -2.453000000    -5.070000000    -5.229000000
H    -2.592000000    -6.083000000    -4.863000000
C    -2.880000000    -4.048000000    -4.361000000
C    -2.940000000    -2.769000000    -4.890000000
H    -3.384000000    -1.963000000    -4.312000000
C    -2.457000000    -1.199000000    -1.253000000
H    -3.115000000    -1.618000000    -2.009000000
C    -1.069000000    -1.206000000    -1.498000000
H    -0.772000000    -1.642000000    -2.448000000
C    -0.222000000    -0.595000000    -0.603000000
H     0.895000000    -0.577000000    -0.721000000
C    -0.751000000     0.034000000     0.549000000
H    -0.156000000     0.643000000     1.225000000
C    -2.060000000     0.070000000     0.869000000
H    -2.434000000     0.653000000     1.706000000
C    -2.940000000    -0.549000000    -0.102000000
C    -4.420000000    -0.244000000     0.060000000
O    -4.813000000     0.337000000     1.037000000
O    -5.257000000    -0.705000000    -0.728000000
O    -1.926000000     2.462000000    -1.441000000
H    -1.326000000     2.684000000    -2.152000000
H    -1.785000000     1.527000000    -1.291000000
O    -5.696000000    -2.652000000    -6.046000000
H    -5.775000000    -2.627000000    -5.092000000
H    -6.057000000    -3.504000000    -6.294000000
O    -9.296000000     0.968000000     3.139000000
H    -8.645000000     1.632000000     2.914000000
H    -8.790000000     0.164000000     3.253000000
O    -5.177000000     2.827000000     1.437000000
H    -4.852000000     3.355000000     0.708000000
H    -4.919000000     1.932000000     1.219000000
O    -7.682000000    -2.494000000     4.988000000
H    -7.708000000    -3.309000000     4.487000000
H    -7.140000000    -1.906000000     4.462000000
O    -6.782000000     4.314000000    -3.434000000
H    -6.240000000     5.034000000    -3.110000000
H    -7.269000000     4.016000000    -2.665000000
O    -7.816000000     3.831000000    -0.946000000
H    -7.460000000     3.027000000    -0.568000000
H    -8.739000000     3.827000000    -0.692000000
O    -7.269000000     1.132000000    -0.119000000
H    -6.885000000     0.279000000    -0.318000000
H    -6.681000000     1.513000000     0.533000000
O    -9.923000000    -1.740000000     1.900000000
H    -9.976000000    -2.081000000     2.792000000
H    -9.296000000    -2.314000000     1.460000000
O    -6.180000000    -1.883000000    -3.208000000
H    -6.952000000    -1.318000000    -3.236000000
H    -5.631000000    -1.504000000    -2.521000000
O    -6.947000000    -0.989000000     2.653000000
H    -7.313000000    -1.348000000     1.844000000
H    -6.266000000    -0.384000000     2.359000000
O    -4.534000000     4.100000000    -1.018000000
H    -3.679000000     3.683000000    -1.115000000
H    -4.517000000     4.829000000    -1.639000000
O    -7.282000000     2.874000000     3.087000000
H    -7.743000000     3.660000000     2.796000000
H    -6.505000000     2.832000000     2.529000000
O    -5.081000000     1.454000000    -2.799000000
H    -5.289000000     0.712000000    -2.231000000
H    -4.903000000     2.175000000    -2.194000000
O    -4.805000000     0.593000000    -5.500000000
H    -5.189000000     0.568000000    -4.623000000
H    -4.885000000    -0.305000000    -5.821000000
O    -8.051000000     0.210000000    -3.528000000
H    -8.992000000     0.372000000    -3.591000000
H    -7.657000000     1.083000000    -3.534000000
O   -10.027000000     0.579000000    -0.086000000
H    -9.977000000     0.140000000     0.763000000
H    -9.139000000     0.903000000    -0.241000000
O    -7.870000000    -4.316000000    -3.201000000
H    -8.425000000    -4.334000000    -3.980000000
H    -7.356000000    -3.513000000    -3.291000000
O    -7.515000000    -2.559000000     0.614000000
H    -6.752000000    -2.367000000     0.069000000
H    -7.666000000    -3.496000000     0.494000000
