215
-1466.42291
C    -0.055000000     1.423000000     5.122000000
H     0.602000000     2.288000000     5.072000000
C     0.276000000     0.146000000     4.690000000
C    -0.643000000    -0.882000000     4.882000000
H    -0.441000000    -1.895000000     4.545000000
C     1.567000000    -0.134000000     3.912000000
O     2.452000000     1.039000000     4.052000000
H     1.214000000    -0.247000000     2.876000000
O     2.349000000    -1.283000000     4.275000000
C     2.788000000    -2.026000000     3.236000000
C     1.955000000    -3.046000000     2.682000000
H     0.958000000    -3.187000000     3.092000000
C     2.301000000    -3.791000000     1.600000000
O     1.333000000    -4.636000000     1.185000000
C     3.459000000    -3.427000000     0.918000000
C     3.828000000    -4.079000000    -0.367000000
H     4.907000000    -3.965000000    -0.492000000
C     3.108000000    -3.423000000    -1.555000000
C     3.821000000    -2.496000000    -2.349000000
H     4.866000000    -2.281000000    -2.142000000
H     3.591000000    -5.144000000    -0.339000000
C     4.216000000    -2.335000000     1.336000000
H     5.164000000    -2.130000000     0.847000000
C     3.927000000    -1.568000000     2.484000000
C     4.716000000    -0.358000000     2.909000000
H     5.725000000    -0.711000000     2.685000000
H     4.709000000    -0.284000000     3.998000000
C     4.189000000     0.962000000     2.336000000
C     4.739000000     1.531000000     1.186000000
H     5.691000000     1.118000000     0.863000000
C     3.107000000     1.554000000     2.963000000
C     2.562000000     2.719000000     2.504000000
H     1.816000000     3.245000000     3.095000000
C     3.066000000     3.287000000     1.268000000
O     2.307000000     4.353000000     0.756000000
C     1.458000000     3.911000000    -0.312000000
C     0.115000000     4.607000000    -0.300000000
C    -0.561000000     4.986000000    -1.457000000
H    -0.203000000     4.744000000    -2.455000000
C    -0.501000000     4.758000000     0.967000000
H    -0.019000000     4.409000000     1.877000000
O     2.147000000     4.174000000    -1.530000000
H     1.343000000     2.823000000    -0.192000000
C     4.144000000     2.663000000     0.593000000
C     4.642000000     3.140000000    -0.727000000
H     5.698000000     2.869000000    -0.789000000
H     4.607000000     4.231000000    -0.692000000
C     3.893000000     2.506000000    -1.841000000
C     4.374000000     1.297000000    -2.491000000
H     5.310000000     0.809000000    -2.234000000
C     2.725000000     3.148000000    -2.240000000
C     1.958000000     2.584000000    -3.273000000
H     0.999000000     2.999000000    -3.574000000
C     2.405000000     1.491000000    -3.957000000
O     1.451000000     1.046000000    -4.738000000
C     0.539000000    -0.034000000    -4.226000000
C    -0.913000000     0.014000000    -4.746000000
C    -1.436000000     1.116000000    -5.388000000
H    -0.876000000     1.982000000    -5.732000000
C    -1.845000000    -0.925000000    -4.281000000
H    -1.524000000    -1.815000000    -3.745000000
O     1.152000000    -1.310000000    -4.506000000
H     0.517000000     0.048000000    -3.129000000
C     3.547000000     0.736000000    -3.472000000
C     3.948000000    -0.655000000    -4.046000000
H     5.033000000    -0.776000000    -4.082000000
H     3.586000000    -0.626000000    -5.076000000
C     3.212000000    -1.792000000    -3.366000000
C     1.847000000    -2.047000000    -3.616000000
C     1.158000000    -3.049000000    -2.921000000
H     0.157000000    -3.345000000    -3.226000000
C     1.776000000    -3.772000000    -1.909000000
O     0.985000000    -4.709000000    -1.222000000
C     0.451000000    -4.201000000     0.072000000
H     0.349000000    -3.121000000     0.256000000
C    -0.946000000    -4.783000000     0.373000000
C    -1.407000000    -5.047000000     1.688000000
H    -0.683000000    -4.968000000     2.494000000
C    -1.883000000    -4.960000000    -0.683000000
H    -1.619000000    -4.669000000    -1.697000000
C    -3.190000000    -5.294000000    -0.371000000
O    -4.149000000    -5.480000000    -1.379000000
C    -3.625000000    -5.541000000     0.933000000
H    -4.656000000    -5.828000000     1.126000000
C    -2.676000000    -5.433000000     1.982000000
O    -3.055000000    -5.679000000     3.279000000
C    -2.687000000    -5.003000000     4.387000000
C    -2.878000000    -3.583000000     4.418000000
H    -3.342000000    -2.917000000     3.695000000
C    -2.179000000    -5.780000000     5.499000000
H    -1.979000000    -6.848000000     5.525000000
C    -1.928000000    -5.068000000     6.611000000
H    -1.677000000    -5.667000000     7.483000000
C    -2.151000000    -3.675000000     6.733000000
H    -1.971000000    -3.183000000     7.685000000
C    -2.602000000    -2.960000000     5.608000000
O    -2.759000000    -1.608000000     5.786000000
C    -1.855000000    -0.604000000     5.524000000
C    -2.179000000     0.658000000     5.940000000
H    -3.104000000     0.793000000     6.495000000
C    -1.348000000     1.734000000     5.606000000
O    -1.785000000     3.013000000     5.973000000
C    -1.507000000     4.152000000     5.265000000
C    -1.989000000     4.274000000     3.992000000
H    -2.569000000     3.484000000     3.521000000
C    -0.740000000     5.192000000     5.955000000
H    -0.491000000     5.082000000     7.008000000
C    -0.699000000     6.430000000     5.301000000
H    -0.190000000     7.252000000     5.798000000
C    -1.215000000     6.582000000     4.017000000
H    -1.121000000     7.499000000     3.441000000
C    -1.880000000     5.510000000     3.375000000
O    -2.423000000     5.735000000     2.131000000
C    -1.805000000     5.354000000     1.022000000
C    -2.566000000     5.499000000    -0.159000000
H    -3.541000000     5.945000000     0.017000000
C    -1.928000000     5.390000000    -1.382000000
O    -2.649000000     5.554000000    -2.487000000
C    -2.233000000     5.110000000    -3.773000000
C    -2.937000000     4.029000000    -4.319000000
H    -3.603000000     3.445000000    -3.688000000
C    -1.285000000     5.773000000    -4.544000000
H    -0.726000000     6.573000000    -4.064000000
C    -0.998000000     5.389000000    -5.873000000
H    -0.289000000     5.965000000    -6.463000000
C    -1.650000000     4.280000000    -6.393000000
H    -1.535000000     3.933000000    -7.416000000
C    -2.715000000     3.623000000    -5.684000000
O    -3.269000000     2.445000000    -6.102000000
C    -2.841000000     1.230000000    -5.649000000
C    -3.762000000     0.248000000    -5.269000000
H    -4.835000000     0.382000000    -5.373000000
C    -3.234000000    -0.834000000    -4.589000000
O    -4.146000000    -1.718000000    -4.109000000
C    -3.914000000    -3.058000000    -4.065000000
C    -3.432000000    -3.876000000    -5.100000000
H    -3.219000000    -3.396000000    -6.052000000
C    -3.165000000    -5.208000000    -4.885000000
H    -2.791000000    -5.681000000    -5.790000000
C    -3.488000000    -5.813000000    -3.710000000
H    -3.299000000    -6.869000000    -3.535000000
C    -3.933000000    -4.985000000    -2.639000000
C    -4.176000000    -3.657000000    -2.810000000
H    -4.647000000    -3.094000000    -2.008000000
C    -2.104000000    -0.624000000    -0.395000000
H    -2.696000000    -1.253000000    -1.054000000
C    -0.779000000    -0.445000000    -0.589000000
H    -0.394000000    -1.123000000    -1.346000000
C    -0.020000000     0.351000000     0.286000000
H     1.132000000     0.430000000     0.237000000
C    -0.694000000     0.866000000     1.383000000
H    -0.095000000     1.450000000     2.078000000
C    -2.087000000     0.726000000     1.577000000
H    -2.617000000     1.023000000     2.478000000
C    -2.815000000     0.006000000     0.658000000
C    -4.331000000    -0.132000000     0.801000000
O    -4.821000000     0.073000000     1.891000000
O    -5.069000000    -0.494000000    -0.135000000
O    -5.853000000     1.064000000     4.011000000
H    -6.075000000     0.284000000     4.519000000
H    -5.364000000     0.730000000     3.260000000
O    -9.813000000     2.653000000     0.315000000
H    -9.780000000     3.587000000     0.522000000
H    -9.056000000     2.281000000     0.768000000
O    -5.879000000     4.356000000    -1.766000000
H    -6.468000000     3.846000000    -2.322000000
H    -5.648000000     3.761000000    -1.052000000
O    -8.595000000    -4.926000000     0.771000000
H    -8.084000000    -4.135000000     0.942000000
H    -8.034000000    -5.453000000     0.201000000
O    -5.611000000     3.037000000     1.082000000
H    -6.515000000     2.968000000     1.389000000
H    -5.304000000     2.131000000     1.035000000
O    -6.268000000     5.636000000     1.258000000
H    -5.905000000     4.751000000     1.228000000
H    -6.059000000     6.010000000     0.402000000
O    -6.064000000    -1.403000000     4.806000000
H    -6.141000000    -2.213000000     4.301000000
H    -5.123000000    -1.295000000     4.943000000
O    -9.813000000    -2.016000000    -1.591000000
H    -9.794000000    -1.065000000    -1.484000000
H    -9.836000000    -2.149000000    -2.539000000
O    -6.080000000     3.425000000     5.160000000
H    -6.039000000     2.634000000     4.623000000
H    -6.719000000     3.219000000     5.842000000
O    -9.096000000    -1.025000000     3.062000000
H    -9.950000000    -1.294000000     2.722000000
H    -9.270000000    -0.202000000     3.519000000
O    -7.956000000     2.080000000     2.342000000
H    -7.473000000     1.527000000     2.957000000
H    -8.761000000     2.308000000     2.807000000
O    -4.796000000     0.917000000    -2.440000000
H    -4.392000000     0.455000000    -3.174000000
H    -4.872000000     0.255000000    -1.753000000
O    -9.314000000     0.807000000    -1.593000000
H    -9.622000000     1.504000000    -1.013000000
H    -8.608000000     0.384000000    -1.105000000
O    -7.644000000     0.287000000     0.380000000
H    -7.818000000     0.608000000     1.264000000
H    -6.698000000     0.142000000     0.360000000
O    -7.145000000    -3.957000000     4.211000000
H    -7.664000000    -4.761000000     4.237000000
H    -7.307000000    -3.596000000     3.339000000
O    -7.294000000     2.145000000    -2.943000000
H    -6.408000000     1.871000000    -2.708000000
H    -7.857000000     1.707000000    -2.305000000
O    -6.895000000    -2.694000000     1.620000000
H    -7.263000000    -1.832000000     1.815000000
H    -6.032000000    -2.508000000     1.251000000
O    -7.360000000    -2.380000000    -4.998000000
H    -6.645000000    -1.888000000    -5.403000000
H    -7.169000000    -2.351000000    -4.060000000
O    -6.953000000    -1.975000000    -1.990000000
H    -7.742000000    -2.106000000    -1.465000000
H    -6.356000000    -1.500000000    -1.412000000
