215
-1456.06022
C    -0.181000000     1.435000000     4.855000000
H     0.165000000     2.341000000     4.363000000
C     0.451000000     0.210000000     4.764000000
C    -0.252000000    -0.898000000     5.277000000
H     0.140000000    -1.904000000     5.158000000
C     1.704000000     0.079000000     3.954000000
O     2.616000000     1.176000000     4.039000000
H     1.386000000    -0.138000000     2.924000000
O     2.392000000    -1.168000000     4.294000000
C     2.901000000    -1.849000000     3.191000000
C     2.089000000    -2.870000000     2.796000000
H     1.240000000    -3.159000000     3.409000000
C     2.333000000    -3.419000000     1.536000000
O     1.471000000    -4.386000000     1.153000000
C     3.511000000    -3.134000000     0.768000000
C     4.012000000    -3.823000000    -0.501000000
H     5.092000000    -3.795000000    -0.659000000
C     3.260000000    -3.267000000    -1.701000000
C     3.869000000    -2.325000000    -2.504000000
H     4.858000000    -2.017000000    -2.174000000
H     3.808000000    -4.891000000    -0.395000000
C     4.306000000    -2.130000000     1.262000000
H     5.156000000    -1.758000000     0.695000000
C     4.055000000    -1.455000000     2.449000000
C     4.871000000    -0.265000000     2.858000000
H     5.859000000    -0.397000000     2.413000000
H     5.007000000    -0.246000000     3.942000000
C     4.327000000     1.049000000     2.330000000
C     4.766000000     1.597000000     1.129000000
H     5.632000000     1.214000000     0.596000000
C     3.238000000     1.660000000     2.928000000
C     2.578000000     2.781000000     2.400000000
H     1.806000000     3.207000000     3.036000000
C     3.015000000     3.334000000     1.209000000
O     2.313000000     4.442000000     0.727000000
C     1.369000000     3.990000000    -0.311000000
C     0.056000000     4.740000000    -0.207000000
C    -0.908000000     4.689000000    -1.188000000
H    -0.642000000     4.376000000    -2.194000000
C    -0.242000000     5.407000000     0.997000000
H     0.469000000     5.505000000     1.813000000
O     2.019000000     4.315000000    -1.576000000
H     1.222000000     2.904000000    -0.219000000
C     4.115000000     2.718000000     0.583000000
C     4.578000000     3.288000000    -0.770000000
H     5.642000000     3.070000000    -0.888000000
H     4.603000000     4.379000000    -0.803000000
C     3.804000000     2.641000000    -1.886000000
C     4.198000000     1.482000000    -2.557000000
H     5.176000000     1.127000000    -2.242000000
C     2.605000000     3.270000000    -2.252000000
C     1.742000000     2.570000000    -3.079000000
H     0.824000000     2.999000000    -3.470000000
C     2.119000000     1.369000000    -3.703000000
O     1.300000000     0.820000000    -4.744000000
C     0.434000000    -0.294000000    -4.369000000
C    -0.999000000    -0.160000000    -4.984000000
C    -1.706000000     1.033000000    -5.176000000
H    -1.219000000     1.993000000    -5.024000000
C    -1.752000000    -1.399000000    -5.120000000
H    -1.292000000    -2.379000000    -5.020000000
O     1.098000000    -1.463000000    -4.796000000
H     0.293000000    -0.349000000    -3.279000000
C     3.355000000     0.793000000    -3.462000000
C     3.807000000    -0.451000000    -4.154000000
H     4.874000000    -0.621000000    -3.995000000
H     3.705000000    -0.380000000    -5.239000000
C     3.166000000    -1.657000000    -3.525000000
C     1.913000000    -2.131000000    -3.870000000
C     1.402000000    -3.266000000    -3.211000000
H     0.475000000    -3.657000000    -3.624000000
C     1.993000000    -3.773000000    -2.072000000
O     1.196000000    -4.514000000    -1.197000000
C     0.692000000    -3.995000000    -0.014000000
H     0.768000000    -2.898000000    -0.002000000
C    -0.794000000    -4.362000000     0.237000000
C    -1.267000000    -4.614000000     1.558000000
H    -0.573000000    -4.507000000     2.387000000
C    -1.718000000    -4.284000000    -0.804000000
H    -1.455000000    -3.874000000    -1.776000000
C    -3.077000000    -4.678000000    -0.560000000
O    -4.128000000    -4.712000000    -1.508000000
C    -3.466000000    -5.022000000     0.740000000
H    -4.482000000    -5.368000000     0.914000000
C    -2.578000000    -4.940000000     1.798000000
O    -3.127000000    -5.392000000     3.094000000
C    -2.588000000    -4.979000000     4.345000000
C    -2.568000000    -3.587000000     4.563000000
H    -2.915000000    -2.836000000     3.858000000
C    -2.394000000    -5.888000000     5.357000000
H    -2.558000000    -6.948000000     5.182000000
C    -1.934000000    -5.437000000     6.557000000
H    -1.699000000    -6.116000000     7.373000000
C    -1.889000000    -4.114000000     6.899000000
H    -1.712000000    -3.644000000     7.863000000
C    -2.122000000    -3.218000000     5.860000000
O    -2.292000000    -1.841000000     6.236000000
C    -1.534000000    -0.786000000     5.791000000
C    -2.170000000     0.432000000     5.844000000
H    -3.122000000     0.501000000     6.364000000
C    -1.477000000     1.556000000     5.384000000
O    -2.163000000     2.791000000     5.423000000
C    -1.567000000     3.943000000     5.181000000
C    -1.826000000     4.570000000     3.959000000
H    -2.591000000     4.074000000     3.367000000
C    -0.734000000     4.589000000     6.135000000
H    -0.688000000     4.269000000     7.173000000
C    -0.160000000     5.778000000     5.845000000
H     0.450000000     6.184000000     6.648000000
C    -0.459000000     6.456000000     4.637000000
H    -0.037000000     7.429000000     4.400000000
C    -1.281000000     5.812000000     3.687000000
O    -1.673000000     6.414000000     2.514000000
C    -1.489000000     5.876000000     1.268000000
C    -2.483000000     5.781000000     0.298000000
H    -3.426000000     6.224000000     0.605000000
C    -2.149000000     5.214000000    -0.934000000
O    -3.107000000     5.221000000    -1.892000000
C    -2.994000000     4.988000000    -3.211000000
C    -3.393000000     3.736000000    -3.715000000
H    -3.960000000     3.048000000    -3.093000000
C    -2.548000000     5.995000000    -4.085000000
H    -2.256000000     7.007000000    -3.818000000
C    -2.269000000     5.622000000    -5.397000000
H    -1.839000000     6.316000000    -6.114000000
C    -2.566000000     4.381000000    -5.833000000
H    -2.508000000     4.142000000    -6.892000000
C    -3.208000000     3.464000000    -5.058000000
O    -3.675000000     2.257000000    -5.525000000
C    -3.092000000     1.023000000    -5.403000000
C    -3.747000000    -0.172000000    -5.671000000
H    -4.815000000    -0.184000000    -5.873000000
C    -3.062000000    -1.364000000    -5.457000000
O    -3.710000000    -2.605000000    -5.642000000
C    -3.473000000    -3.732000000    -4.927000000
C    -3.346000000    -4.929000000    -5.575000000
H    -3.288000000    -5.067000000    -6.652000000
C    -3.429000000    -6.144000000    -4.791000000
H    -3.251000000    -7.150000000    -5.164000000
C    -3.700000000    -6.002000000    -3.454000000
H    -3.787000000    -6.856000000    -2.786000000
C    -3.801000000    -4.797000000    -2.805000000
C    -3.653000000    -3.641000000    -3.531000000
H    -3.689000000    -2.620000000    -3.159000000
C    -1.829000000     0.179000000    -0.911000000
H    -2.361000000    -0.327000000    -1.712000000
C    -0.598000000    -0.303000000    -0.563000000
H    -0.172000000    -1.108000000    -1.156000000
C     0.128000000     0.307000000     0.425000000
H     1.146000000    -0.062000000     0.536000000
C    -0.412000000     1.341000000     1.194000000
H     0.182000000     1.797000000     1.982000000
C    -1.729000000     1.818000000     0.935000000
H    -2.163000000     2.581000000     1.577000000
C    -2.414000000     1.272000000    -0.197000000
C    -3.750000000     1.890000000    -0.569000000
O    -4.272000000     2.625000000     0.210000000
O    -4.397000000     1.396000000    -1.442000000
O    -6.852000000    -1.116000000    -4.587000000
H    -7.055000000    -1.824000000    -3.976000000
H    -6.773000000    -1.548000000    -5.437000000
O    -4.924000000     2.938000000     2.766000000
H    -4.800000000     2.111000000     3.230000000
H    -4.862000000     2.705000000     1.839000000
O    -9.664000000     4.513000000    -1.220000000
H    -8.932000000     4.371000000    -1.820000000
H    -9.365000000     4.145000000    -0.388000000
O    -7.477000000     4.690000000    -2.819000000
H    -7.822000000     4.104000000    -3.492000000
H    -6.526000000     4.606000000    -2.894000000
O    -8.044000000     6.987000000    -1.559000000
H    -7.821000000     6.121000000    -1.902000000
H    -8.989000000     7.060000000    -1.690000000
O    -5.945000000     4.624000000     0.370000000
H    -6.712000000     4.053000000     0.320000000
H    -5.199000000     4.025000000     0.370000000
O    -5.380000000     7.338000000    -0.581000000
H    -5.555000000     6.406000000    -0.450000000
H    -5.659000000     7.510000000    -1.480000000
O    -5.339000000     0.312000000     3.424000000
H    -5.832000000     0.119000000     2.626000000
H    -4.920000000    -0.517000000     3.653000000
O    -5.244000000     7.366000000    -3.362000000
H    -4.642000000     6.634000000    -3.497000000
H    -5.679000000     7.477000000    -4.208000000
O    -6.415000000     5.279000000     3.305000000
H    -5.946000000     4.570000000     2.867000000
H    -6.482000000     4.995000000     4.217000000
O    -7.797000000     2.198000000     4.217000000
H    -7.046000000     2.151000000     4.810000000
H    -7.528000000     1.693000000     3.450000000
O    -8.110000000     0.193000000     2.255000000
H    -9.023000000    -0.094000000     2.273000000
H    -7.635000000    -0.544000000     1.871000000
O    -8.308000000     3.287000000     0.895000000
H    -7.740000000     2.599000000     0.548000000
H    -8.628000000     2.938000000     1.727000000
O    -6.095000000     2.031000000    -3.387000000
H    -5.688000000     1.371000000    -3.949000000
H    -5.544000000     2.051000000    -2.604000000
O    -5.025000000     7.289000000     2.220000000
H    -4.970000000     7.162000000     1.273000000
H    -5.525000000     6.536000000     2.534000000
O    -6.946000000     1.244000000    -0.441000000
H    -6.823000000     0.654000000     0.302000000
H    -6.072000000     1.594000000    -0.617000000
O    -8.781000000     1.703000000    -2.734000000
H    -7.984000000     1.936000000    -3.209000000
H    -8.469000000     1.341000000    -1.905000000
O    -6.181000000    -1.405000000     1.148000000
H    -5.744000000    -2.175000000     1.512000000
H    -5.939000000    -1.406000000     0.222000000
O    -5.165000000    -1.008000000    -1.488000000
H    -5.765000000    -1.149000000    -2.220000000
H    -4.842000000    -0.115000000    -1.611000000
