215
-1462.98177
C    -0.872000000     1.246000000     5.034000000
H    -0.207000000     2.104000000     4.971000000
C    -0.473000000    -0.007000000     4.686000000
C    -1.340000000    -1.073000000     4.708000000
H    -1.006000000    -2.056000000     4.384000000
C     0.897000000    -0.221000000     4.004000000
O     1.676000000     0.940000000     4.279000000
H     0.715000000    -0.362000000     2.928000000
O     1.445000000    -1.449000000     4.348000000
C     2.115000000    -2.151000000     3.321000000
C     1.401000000    -3.239000000     2.724000000
H     0.493000000    -3.704000000     3.100000000
C     1.999000000    -3.832000000     1.617000000
O     1.282000000    -4.833000000     0.960000000
C     3.234000000    -3.385000000     1.131000000
C     3.771000000    -3.973000000    -0.084000000
H     4.861000000    -3.903000000    -0.109000000
C     3.177000000    -3.298000000    -1.326000000
C     3.885000000    -2.232000000    -1.878000000
H     4.851000000    -1.949000000    -1.469000000
H     3.554000000    -5.042000000    -0.040000000
C     3.847000000    -2.289000000     1.698000000
H     4.750000000    -1.903000000     1.230000000
C     3.340000000    -1.679000000     2.906000000
C     4.062000000    -0.571000000     3.627000000
H     5.137000000    -0.733000000     3.534000000
H     3.897000000    -0.550000000     4.706000000
C     3.693000000     0.782000000     2.962000000
C     4.381000000     1.334000000     1.848000000
H     5.198000000     0.767000000     1.410000000
C     2.611000000     1.482000000     3.408000000
C     2.118000000     2.632000000     2.863000000
H     1.199000000     3.077000000     3.236000000
C     2.819000000     3.206000000     1.898000000
O     2.264000000     4.280000000     1.299000000
C     1.511000000     4.037000000     0.064000000
C     0.081000000     4.653000000     0.072000000
C    -0.738000000     4.772000000    -1.033000000
H    -0.348000000     4.559000000    -2.025000000
C    -0.429000000     5.051000000     1.331000000
H     0.175000000     4.925000000     2.225000000
O     2.292000000     4.502000000    -0.993000000
H     1.336000000     2.965000000    -0.107000000
C     3.945000000     2.553000000     1.345000000
C     4.662000000     3.166000000     0.158000000
H     5.693000000     2.817000000     0.244000000
H     4.683000000     4.257000000     0.188000000
C     4.060000000     2.776000000    -1.201000000
C     4.534000000     1.613000000    -1.735000000
H     5.409000000     1.102000000    -1.340000000
C     2.919000000     3.465000000    -1.776000000
C     2.253000000     2.883000000    -2.796000000
H     1.334000000     3.307000000    -3.191000000
C     2.648000000     1.641000000    -3.307000000
O     1.917000000     1.017000000    -4.326000000
C     0.984000000    -0.068000000    -4.069000000
C    -0.358000000     0.093000000    -4.722000000
C    -0.826000000     1.350000000    -5.091000000
H    -0.153000000     2.203000000    -5.125000000
C    -1.179000000    -0.977000000    -4.812000000
H    -0.882000000    -1.946000000    -4.418000000
O     1.592000000    -1.264000000    -4.524000000
H     0.738000000    -0.196000000    -3.004000000
C     3.836000000     1.026000000    -2.816000000
C     4.217000000    -0.309000000    -3.476000000
H     5.300000000    -0.437000000    -3.420000000
H     4.075000000    -0.216000000    -4.555000000
C     3.429000000    -1.482000000    -2.987000000
C     2.222000000    -1.957000000    -3.543000000
C     1.643000000    -3.153000000    -3.097000000
H     0.770000000    -3.483000000    -3.655000000
C     2.009000000    -3.761000000    -1.947000000
O     1.160000000    -4.705000000    -1.435000000
C     0.523000000    -4.426000000    -0.182000000
H     0.423000000    -3.336000000    -0.072000000
C    -0.838000000    -4.935000000    -0.257000000
C    -1.545000000    -5.103000000     0.962000000
H    -0.998000000    -5.059000000     1.900000000
C    -1.510000000    -4.970000000    -1.487000000
H    -1.021000000    -4.718000000    -2.425000000
C    -2.838000000    -5.322000000    -1.429000000
O    -3.530000000    -5.505000000    -2.618000000
C    -3.556000000    -5.379000000    -0.215000000
H    -4.613000000    -5.632000000    -0.199000000
C    -2.927000000    -5.304000000     1.000000000
O    -3.617000000    -5.464000000     2.157000000
C    -3.270000000    -4.963000000     3.386000000
C    -3.377000000    -3.589000000     3.692000000
H    -3.578000000    -2.803000000     2.968000000
C    -3.100000000    -5.914000000     4.340000000
H    -3.143000000    -6.938000000     3.978000000
C    -2.879000000    -5.492000000     5.699000000
H    -2.470000000    -6.141000000     6.468000000
C    -2.892000000    -4.143000000     5.961000000
H    -2.774000000    -3.777000000     6.977000000
C    -3.232000000    -3.225000000     5.031000000
O    -3.415000000    -1.950000000     5.550000000
C    -2.582000000    -0.885000000     5.289000000
C    -2.990000000     0.364000000     5.746000000
H    -3.923000000     0.527000000     6.280000000
C    -2.157000000     1.458000000     5.629000000
O    -2.676000000     2.722000000     6.016000000
C    -2.060000000     3.887000000     5.597000000
C    -2.229000000     4.304000000     4.271000000
H    -2.865000000     3.704000000     3.624000000
C    -1.270000000     4.652000000     6.450000000
H    -1.173000000     4.240000000     7.451000000
C    -0.701000000     5.897000000     6.084000000
H    -0.059000000     6.448000000     6.766000000
C    -0.949000000     6.364000000     4.733000000
H    -0.509000000     7.323000000     4.472000000
C    -1.701000000     5.544000000     3.818000000
O    -2.232000000     6.042000000     2.642000000
C    -1.669000000     5.656000000     1.439000000
C    -2.434000000     5.868000000     0.270000000
H    -3.396000000     6.368000000     0.343000000
C    -1.963000000     5.428000000    -0.925000000
O    -2.756000000     5.569000000    -2.060000000
C    -2.290000000     5.424000000    -3.390000000
C    -2.641000000     4.185000000    -4.005000000
H    -3.232000000     3.431000000    -3.490000000
C    -1.447000000     6.321000000    -4.012000000
H    -1.154000000     7.183000000    -3.419000000
C    -1.080000000     6.026000000    -5.297000000
H    -0.440000000     6.739000000    -5.810000000
C    -1.540000000     4.887000000    -5.945000000
H    -1.316000000     4.695000000    -6.991000000
C    -2.304000000     3.919000000    -5.314000000
O    -2.579000000     2.714000000    -6.025000000
C    -2.092000000     1.489000000    -5.592000000
C    -2.950000000     0.414000000    -5.756000000
H    -3.895000000     0.561000000    -6.272000000
C    -2.455000000    -0.836000000    -5.390000000
O    -3.171000000    -1.968000000    -5.654000000
C    -2.864000000    -3.268000000    -5.351000000
C    -2.098000000    -4.017000000    -6.195000000
H    -1.827000000    -3.577000000    -7.151000000
C    -1.780000000    -5.313000000    -5.889000000
H    -1.134000000    -5.854000000    -6.576000000
C    -2.231000000    -5.836000000    -4.711000000
H    -1.990000000    -6.858000000    -4.431000000
C    -3.087000000    -5.076000000    -3.859000000
C    -3.248000000    -3.754000000    -4.114000000
H    -3.948000000    -3.176000000    -3.517000000
C    -2.154000000    -1.048000000     0.305000000
H    -2.812000000    -1.784000000    -0.150000000
C    -0.860000000    -0.888000000    -0.119000000
H    -0.517000000    -1.465000000    -0.974000000
C    -0.116000000     0.180000000     0.343000000
H     0.948000000     0.436000000     0.041000000
C    -0.569000000     0.980000000     1.408000000
H     0.035000000     1.809000000     1.768000000
C    -1.899000000     0.793000000     1.864000000
H    -2.289000000     1.525000000     2.566000000
C    -2.729000000    -0.152000000     1.221000000
C    -4.202000000    -0.330000000     1.586000000
O    -4.809000000     0.449000000     2.328000000
O    -4.842000000    -1.138000000     0.879000000
O    -7.321000000    -0.637000000     2.972000000
H    -7.176000000    -1.582000000     2.926000000
H    -6.462000000    -0.254000000     2.797000000
O    -4.486000000     3.440000000    -0.781000000
H    -4.776000000     2.591000000    -1.113000000
H    -3.557000000     3.482000000    -1.009000000
O    -4.910000000     2.987000000     2.248000000
H    -5.258000000     3.193000000     1.381000000
H    -4.988000000     2.035000000     2.317000000
O    -5.649000000     4.353000000     4.300000000
H    -5.933000000     3.699000000     4.939000000
H    -5.381000000     3.841000000     3.537000000
O    -8.928000000    -3.041000000     5.079000000
H    -8.132000000    -3.537000000     5.270000000
H    -8.806000000    -2.729000000     4.182000000
O    -5.584000000     5.797000000    -1.272000000
H    -5.073000000     5.012000000    -1.072000000
H    -5.676000000     5.786000000    -2.224000000
O    -8.823000000     1.314000000     4.174000000
H    -8.510000000     2.218000000     4.210000000
H    -8.185000000     0.861000000     3.622000000
O    -5.648000000     1.380000000     4.955000000
H    -6.057000000     0.732000000     5.528000000
H    -5.336000000     0.874000000     4.205000000
O    -6.307000000    -3.527000000     5.871000000
H    -5.610000000    -3.617000000     5.222000000
H    -5.925000000    -2.982000000     6.559000000
O    -7.639000000    -1.689000000    -3.560000000
H    -7.093000000    -1.648000000    -2.775000000
H    -7.022000000    -1.856000000    -4.273000000
O    -8.451000000     3.255000000     2.375000000
H    -8.069000000     2.903000000     1.571000000
H    -8.866000000     4.074000000     2.103000000
O    -2.179000000     1.665000000    -1.682000000
H    -2.193000000     0.712000000    -1.774000000
H    -1.743000000     1.818000000    -0.844000000
O    -5.743000000     1.101000000    -1.266000000
H    -5.239000000     0.632000000    -0.602000000
H    -6.645000000     1.075000000    -0.943000000
O    -7.673000000     1.127000000     0.700000000
H    -7.077000000     0.688000000     1.308000000
H    -8.538000000     0.782000000     0.921000000
O    -9.687000000    -3.320000000     1.931000000
H    -9.582000000    -3.669000000     1.046000000
H    -9.276000000    -2.456000000     1.897000000
O    -6.528000000    -0.309000000     6.849000000
H    -7.437000000    -0.610000000     6.843000000
H    -6.080000000    -0.910000000     7.444000000
O    -5.881000000     0.721000000    -3.967000000
H    -6.475000000     0.042000000    -3.646000000
H    -5.745000000     1.296000000    -3.215000000
O    -6.106000000    -3.258000000     1.798000000
H    -5.562000000    -2.538000000     1.479000000
H    -5.596000000    -4.045000000     1.608000000
O    -5.838000000    -2.028000000    -1.457000000
H    -5.444000000    -2.890000000    -1.322000000
H    -5.869000000    -1.640000000    -0.583000000
