215
-1442.56921
C    -0.657000000     0.889000000     4.558000000
H    -0.178000000     1.771000000     4.141000000
C     0.010000000    -0.335000000     4.620000000
C    -0.669000000    -1.469000000     5.098000000
H    -0.110000000    -2.392000000     5.225000000
C     1.471000000    -0.398000000     4.149000000
O     2.242000000     0.792000000     4.478000000
H     1.465000000    -0.416000000     3.050000000
O     2.172000000    -1.522000000     4.547000000
C     2.684000000    -2.252000000     3.507000000
C     1.931000000    -3.208000000     2.910000000
H     0.963000000    -3.527000000     3.289000000
C     2.215000000    -3.715000000     1.604000000
O     1.354000000    -4.568000000     0.983000000
C     3.421000000    -3.394000000     0.963000000
C     3.800000000    -4.013000000    -0.379000000
H     4.886000000    -3.942000000    -0.472000000
C     3.161000000    -3.263000000    -1.530000000
C     3.837000000    -2.211000000    -2.190000000
H     4.884000000    -2.093000000    -1.921000000
H     3.636000000    -5.071000000    -0.594000000
C     4.259000000    -2.498000000     1.641000000
H     5.197000000    -2.302000000     1.128000000
C     3.903000000    -1.917000000     2.911000000
C     4.582000000    -0.670000000     3.362000000
H     5.634000000    -0.775000000     3.089000000
H     4.610000000    -0.685000000     4.454000000
C     3.959000000     0.618000000     2.812000000
C     4.459000000     1.157000000     1.682000000
H     5.185000000     0.503000000     1.206000000
C     2.953000000     1.342000000     3.478000000
C     2.497000000     2.557000000     3.001000000
H     1.631000000     2.976000000     3.506000000
C     2.965000000     2.971000000     1.723000000
O     2.362000000     4.114000000     1.198000000
C     1.598000000     3.952000000     0.062000000
C     0.307000000     4.756000000     0.214000000
C    -0.346000000     5.160000000    -0.984000000
H     0.169000000     4.862000000    -1.894000000
C    -0.384000000     5.033000000     1.342000000
H     0.057000000     4.800000000     2.307000000
O     2.341000000     4.329000000    -1.155000000
H     1.244000000     2.913000000    -0.013000000
C     4.046000000     2.344000000     1.109000000
C     4.811000000     2.936000000    -0.044000000
H     5.807000000     2.489000000    -0.003000000
H     4.873000000     4.025000000     0.021000000
C     4.053000000     2.584000000    -1.355000000
C     4.468000000     1.533000000    -2.170000000
H     5.349000000     0.967000000    -1.877000000
C     2.907000000     3.245000000    -1.831000000
C     2.219000000     2.773000000    -2.900000000
H     1.356000000     3.329000000    -3.257000000
C     2.559000000     1.690000000    -3.585000000
O     1.764000000     1.261000000    -4.614000000
C     0.840000000     0.170000000    -4.178000000
C    -0.568000000     0.404000000    -4.637000000
C    -1.157000000     1.674000000    -4.790000000
H    -0.573000000     2.538000000    -4.482000000
C    -1.453000000    -0.714000000    -4.638000000
H    -1.090000000    -1.732000000    -4.527000000
O     1.283000000    -1.135000000    -4.572000000
H     0.680000000     0.214000000    -3.091000000
C     3.716000000     0.992000000    -3.224000000
C     4.095000000    -0.325000000    -3.922000000
H     5.172000000    -0.495000000    -3.977000000
H     3.852000000    -0.124000000    -4.967000000
C     3.306000000    -1.436000000    -3.200000000
C     1.996000000    -1.820000000    -3.606000000
C     1.330000000    -2.890000000    -2.983000000
H     0.359000000    -3.281000000    -3.276000000
C     1.917000000    -3.589000000    -1.965000000
O     1.189000000    -4.542000000    -1.357000000
C     0.615000000    -4.111000000    -0.134000000
H     0.524000000    -3.035000000     0.075000000
C    -0.840000000    -4.598000000    -0.005000000
C    -1.558000000    -4.513000000     1.225000000
H    -1.172000000    -4.097000000     2.152000000
C    -1.506000000    -4.944000000    -1.152000000
H    -0.931000000    -4.935000000    -2.074000000
C    -2.859000000    -5.163000000    -1.195000000
O    -3.543000000    -5.514000000    -2.366000000
C    -3.561000000    -5.153000000    -0.039000000
H    -4.623000000    -5.384000000    -0.058000000
C    -2.911000000    -4.801000000     1.171000000
O    -3.678000000    -5.005000000     2.367000000
C    -3.165000000    -4.955000000     3.619000000
C    -3.137000000    -3.735000000     4.255000000
H    -3.447000000    -2.860000000     3.689000000
C    -2.958000000    -6.092000000     4.368000000
H    -3.084000000    -7.055000000     3.880000000
C    -2.538000000    -6.039000000     5.674000000
H    -2.631000000    -6.939000000     6.276000000
C    -2.421000000    -4.840000000     6.291000000
H    -2.417000000    -4.723000000     7.372000000
C    -2.639000000    -3.664000000     5.553000000
O    -2.500000000    -2.461000000     6.169000000
C    -1.935000000    -1.382000000     5.584000000
C    -2.597000000    -0.198000000     5.510000000
H    -3.652000000    -0.180000000     5.773000000
C    -1.973000000     1.000000000     5.059000000
O    -2.641000000     2.173000000     4.979000000
C    -2.059000000     3.312000000     4.919000000
C    -2.173000000     4.041000000     3.704000000
H    -2.621000000     3.558000000     2.839000000
C    -1.705000000     3.887000000     6.148000000
H    -1.732000000     3.447000000     7.142000000
C    -1.301000000     5.240000000     6.041000000
H    -0.891000000     5.702000000     6.936000000
C    -1.428000000     5.959000000     4.825000000
H    -1.100000000     6.994000000     4.760000000
C    -1.914000000     5.374000000     3.710000000
O    -2.172000000     6.111000000     2.605000000
C    -1.643000000     5.747000000     1.377000000
C    -2.180000000     6.247000000     0.251000000
H    -3.089000000     6.839000000     0.326000000
C    -1.487000000     5.998000000    -0.953000000
O    -1.975000000     6.571000000    -2.111000000
C    -2.005000000     5.942000000    -3.344000000
C    -2.322000000     4.582000000    -3.518000000
H    -2.450000000     3.915000000    -2.669000000
C    -1.875000000     6.886000000    -4.391000000
H    -1.970000000     7.943000000    -4.158000000
C    -1.988000000     6.451000000    -5.703000000
H    -1.836000000     7.194000000    -6.482000000
C    -2.465000000     5.108000000    -5.912000000
H    -2.713000000     4.748000000    -6.907000000
C    -2.613000000     4.185000000    -4.850000000
O    -3.105000000     2.930000000    -5.209000000
C    -2.490000000     1.782000000    -5.057000000
C    -3.307000000     0.660000000    -5.222000000
H    -4.350000000     0.833000000    -5.473000000
C    -2.790000000    -0.575000000    -5.024000000
O    -3.631000000    -1.654000000    -5.210000000
C    -3.255000000    -2.982000000    -4.972000000
C    -2.758000000    -3.725000000    -6.106000000
H    -2.626000000    -3.307000000    -7.100000000
C    -2.592000000    -5.049000000    -5.905000000
H    -2.357000000    -5.599000000    -6.813000000
C    -2.825000000    -5.751000000    -4.710000000
H    -2.762000000    -6.831000000    -4.599000000
C    -3.175000000    -4.952000000    -3.577000000
C    -3.414000000    -3.596000000    -3.777000000
H    -3.950000000    -2.951000000    -3.086000000
C    -2.675000000    -1.505000000    -0.439000000
H    -3.438000000    -1.999000000    -1.034000000
C    -1.380000000    -1.170000000    -0.973000000
H    -1.206000000    -1.454000000    -2.008000000
C    -0.542000000    -0.296000000    -0.291000000
H     0.360000000     0.159000000    -0.678000000
C    -0.894000000     0.041000000     0.958000000
H    -0.169000000     0.630000000     1.514000000
C    -2.141000000    -0.223000000     1.472000000
H    -2.418000000     0.115000000     2.467000000
C    -3.069000000    -0.939000000     0.745000000
C    -4.402000000    -1.267000000     1.316000000
O    -4.715000000    -0.853000000     2.400000000
O    -5.263000000    -1.915000000     0.672000000
O    -6.105000000    -0.803000000     4.443000000
H    -6.963000000    -0.773000000     4.018000000
H    -5.482000000    -0.871000000     3.719000000
O    -6.638000000     1.644000000    -4.652000000
H    -7.324000000     2.198000000    -4.279000000
H    -6.351000000     1.094000000    -3.924000000
O    -4.307000000     2.943000000     0.323000000
H    -4.485000000     2.406000000     1.095000000
H    -3.691000000     2.424000000    -0.194000000
O    -6.777000000    -4.775000000    -2.404000000
H    -7.440000000    -5.275000000    -1.928000000
H    -6.267000000    -5.437000000    -2.871000000
O    -4.831000000     1.887000000     2.765000000
H    -4.559000000     1.884000000     3.682000000
H    -5.198000000     1.015000000     2.621000000
O    -7.083000000    -7.107000000     2.023000000
H    -7.023000000    -6.185000000     2.271000000
H    -7.313000000    -7.559000000     2.835000000
O    -9.706000000    -1.314000000     5.068000000
H    -9.304000000    -1.681000000     4.280000000
H    -9.266000000    -0.473000000     5.191000000
O    -8.575000000     1.062000000     4.823000000
H    -8.746000000     1.506000000     3.992000000
H    -8.250000000     1.752000000     5.401000000
O    -5.499000000     1.710000000     5.637000000
H    -5.517000000     1.400000000     6.542000000
H    -5.735000000     0.942000000     5.116000000
O    -6.170000000    -3.600000000     5.720000000
H    -6.023000000    -2.926000000     5.056000000
H    -5.657000000    -3.308000000     6.474000000
O    -8.505000000     1.989000000     2.352000000
H    -8.092000000     1.246000000     1.912000000
H    -8.443000000     2.706000000     1.722000000
O    -9.365000000    -4.860000000     0.896000000
H    -9.176000000    -4.220000000     0.210000000
H   -10.016000000    -5.443000000     0.506000000
O    -2.389000000     1.620000000    -1.293000000
H    -2.901000000     1.029000000    -1.846000000
H    -1.802000000     1.043000000    -0.805000000
O    -7.053000000     2.106000000    -1.014000000
H    -7.383000000     1.447000000    -0.402000000
H    -6.703000000     2.798000000    -0.454000000
O    -7.471000000    -0.197000000     0.969000000
H    -6.674000000    -0.722000000     1.033000000
H    -8.182000000    -0.838000000     0.980000000
O    -8.958000000    -2.301000000     2.444000000
H    -8.312000000    -3.007000000     2.396000000
H    -9.660000000    -2.579000000     1.856000000
O    -5.303000000     0.455000000    -2.415000000
H    -5.519000000    -0.399000000    -2.041000000
H    -5.715000000     1.086000000    -1.824000000
O    -6.557000000    -4.076000000     2.457000000
H    -6.336000000    -3.501000000     1.724000000
H    -5.925000000    -3.848000000     3.139000000
O    -5.927000000    -2.267000000    -1.795000000
H    -6.316000000    -3.120000000    -1.989000000
H    -5.833000000    -2.257000000    -0.843000000
