215
-1466.75718
C    -1.814000000     1.470000000     4.546000000
H    -1.054000000     2.224000000     4.360000000
C    -1.393000000     0.203000000     4.816000000
C    -2.370000000    -0.782000000     4.995000000
H    -2.020000000    -1.809000000     5.061000000
C     0.062000000    -0.154000000     4.447000000
O     0.919000000     0.960000000     4.896000000
H     0.285000000    -0.121000000     3.371000000
O     0.495000000    -1.408000000     4.935000000
C     1.256000000    -2.181000000     4.095000000
C     0.632000000    -3.180000000     3.382000000
H    -0.424000000    -3.364000000     3.563000000
C     1.304000000    -3.874000000     2.384000000
O     0.566000000    -4.709000000     1.612000000
C     2.604000000    -3.537000000     2.109000000
C     3.370000000    -4.171000000     0.972000000
H     4.442000000    -4.194000000     1.178000000
C     3.196000000    -3.433000000    -0.376000000
C     4.167000000    -2.537000000    -0.874000000
H     5.103000000    -2.492000000    -0.323000000
H     3.072000000    -5.217000000     0.877000000
C     3.300000000    -2.547000000     2.797000000
H     4.344000000    -2.292000000     2.632000000
C     2.622000000    -1.847000000     3.842000000
C     3.370000000    -0.679000000     4.488000000
H     4.445000000    -0.858000000     4.427000000
H     3.042000000    -0.700000000     5.530000000
C     3.069000000     0.728000000     3.821000000
C     3.935000000     1.135000000     2.811000000
H     4.807000000     0.515000000     2.617000000
C     1.888000000     1.446000000     4.040000000
C     1.613000000     2.581000000     3.299000000
H     0.644000000     3.066000000     3.392000000
C     2.524000000     3.025000000     2.368000000
O     2.160000000     3.983000000     1.527000000
C     1.658000000     3.693000000     0.245000000
C     0.461000000     4.475000000    -0.133000000
C    -0.241000000     4.231000000    -1.342000000
H     0.199000000     3.549000000    -2.064000000
C    -0.162000000     5.317000000     0.816000000
H     0.289000000     5.520000000     1.784000000
O     2.730000000     3.997000000    -0.672000000
H     1.482000000     2.607000000     0.241000000
C     3.701000000     2.302000000     2.111000000
C     4.704000000     2.701000000     0.998000000
H     5.658000000     2.318000000     1.365000000
H     4.742000000     3.793000000     0.975000000
C     4.270000000     2.163000000    -0.376000000
C     4.846000000     1.073000000    -0.961000000
H     5.542000000     0.386000000    -0.486000000
C     3.482000000     2.900000000    -1.197000000
C     3.174000000     2.571000000    -2.532000000
H     2.539000000     3.212000000    -3.138000000
C     3.587000000     1.325000000    -3.020000000
O     3.189000000     0.865000000    -4.283000000
C     2.152000000    -0.125000000    -4.121000000
C     1.166000000    -0.010000000    -5.188000000
C     0.837000000     1.243000000    -5.784000000
H     1.416000000     2.135000000    -5.559000000
C     0.327000000    -1.109000000    -5.542000000
H     0.385000000    -2.034000000    -4.973000000
O     2.652000000    -1.435000000    -3.989000000
H     1.567000000     0.163000000    -3.235000000
C     4.435000000     0.565000000    -2.223000000
C     4.949000000    -0.853000000    -2.630000000
H     5.928000000    -0.979000000    -2.163000000
H     5.091000000    -1.002000000    -3.702000000
C     3.993000000    -1.912000000    -2.122000000
C     2.796000000    -2.088000000    -2.767000000
C     1.816000000    -2.879000000    -2.319000000
H     0.876000000    -2.957000000    -2.859000000
C     2.011000000    -3.556000000    -1.121000000
O     0.977000000    -4.420000000    -0.782000000
C     0.136000000    -4.057000000     0.380000000
H     0.177000000    -2.975000000     0.576000000
C    -1.332000000    -4.337000000    -0.036000000
C    -2.335000000    -4.467000000     0.984000000
H    -2.002000000    -4.287000000     2.003000000
C    -1.744000000    -4.455000000    -1.350000000
H    -1.100000000    -4.172000000    -2.178000000
C    -3.042000000    -4.760000000    -1.682000000
O    -3.518000000    -4.559000000    -2.954000000
C    -3.979000000    -4.946000000    -0.628000000
H    -5.017000000    -4.824000000    -0.927000000
C    -3.642000000    -4.829000000     0.717000000
O    -4.568000000    -4.936000000     1.771000000
C    -4.304000000    -4.551000000     3.098000000
C    -4.422000000    -3.241000000     3.487000000
H    -4.912000000    -2.594000000     2.763000000
C    -3.818000000    -5.491000000     4.011000000
H    -3.483000000    -6.501000000     3.788000000
C    -3.607000000    -5.120000000     5.322000000
H    -3.238000000    -5.863000000     6.024000000
C    -3.916000000    -3.850000000     5.727000000
H    -3.907000000    -3.661000000     6.797000000
C    -4.397000000    -2.882000000     4.829000000
O    -4.644000000    -1.572000000     5.117000000
C    -3.758000000    -0.489000000     4.956000000
C    -4.183000000     0.824000000     4.857000000
H    -5.242000000     1.056000000     4.939000000
C    -3.197000000     1.802000000     4.696000000
O    -3.587000000     3.076000000     4.394000000
C    -2.744000000     4.195000000     4.279000000
C    -2.786000000     4.827000000     3.067000000
H    -3.344000000     4.370000000     2.254000000
C    -1.953000000     4.693000000     5.289000000
H    -1.926000000     4.068000000     6.179000000
C    -1.170000000     5.835000000     5.090000000
H    -0.498000000     6.242000000     5.842000000
C    -1.380000000     6.578000000     3.963000000
H    -0.778000000     7.441000000     3.689000000
C    -2.107000000     6.024000000     2.917000000
O    -2.066000000     6.587000000     1.645000000
C    -1.472000000     5.849000000     0.603000000
C    -2.239000000     5.474000000    -0.502000000
H    -3.247000000     5.855000000    -0.642000000
C    -1.571000000     4.728000000    -1.530000000
O    -2.215000000     4.454000000    -2.676000000
C    -1.634000000     4.637000000    -3.887000000
C    -1.542000000     3.560000000    -4.748000000
H    -1.960000000     2.590000000    -4.490000000
C    -1.267000000     5.912000000    -4.315000000
H    -1.370000000     6.816000000    -3.720000000
C    -0.717000000     6.063000000    -5.578000000
H    -0.531000000     7.039000000    -6.021000000
C    -0.525000000     4.977000000    -6.441000000
H    -0.187000000     5.131000000    -7.462000000
C    -0.930000000     3.716000000    -5.983000000
O    -0.811000000     2.631000000    -6.894000000
C    -0.317000000     1.388000000    -6.581000000
C    -1.142000000     0.295000000    -6.815000000
H    -2.087000000     0.401000000    -7.341000000
C    -0.770000000    -0.986000000    -6.369000000
O    -1.707000000    -2.015000000    -6.566000000
C    -1.842000000    -3.215000000    -5.857000000
C    -1.042000000    -4.257000000    -6.308000000
H    -0.316000000    -4.169000000    -7.112000000
C    -1.216000000    -5.451000000    -5.631000000
H    -0.671000000    -6.313000000    -6.006000000
C    -2.043000000    -5.592000000    -4.527000000
H    -2.089000000    -6.476000000    -3.896000000
C    -2.732000000    -4.487000000    -4.085000000
C    -2.666000000    -3.288000000    -4.755000000
H    -3.243000000    -2.451000000    -4.369000000
C    -2.390000000    -1.063000000    -0.278000000
H    -2.724000000    -2.010000000    -0.695000000
C    -1.014000000    -0.765000000    -0.395000000
H    -0.227000000    -1.343000000    -0.872000000
C    -0.600000000     0.456000000     0.172000000
H     0.439000000     0.672000000     0.201000000
C    -1.499000000     1.250000000     0.915000000
H    -1.192000000     2.160000000     1.424000000
C    -2.839000000     0.992000000     0.965000000
H    -3.472000000     1.702000000     1.493000000
C    -3.325000000    -0.181000000     0.321000000
C    -4.776000000    -0.547000000     0.622000000
O    -5.530000000     0.187000000     1.294000000
O    -5.140000000    -1.667000000     0.255000000
O    -7.767000000    -0.886000000     4.589000000
H    -7.544000000    -1.168000000     3.702000000
H    -8.195000000    -0.038000000     4.471000000
O    -4.929000000     3.204000000    -2.060000000
H    -4.151000000     3.436000000    -2.567000000
H    -5.590000000     3.840000000    -2.331000000
O    -6.413000000    -3.564000000    -3.865000000
H    -6.481000000    -3.012000000    -4.644000000
H    -6.097000000    -4.405000000    -4.194000000
O    -6.541000000     1.647000000    -0.503000000
H    -5.673000000     1.911000000    -0.810000000
H    -6.369000000     0.946000000     0.126000000
O    -7.564000000    -4.650000000     3.058000000
H    -8.196000000    -5.369000000     3.088000000
H    -6.711000000    -5.079000000     3.112000000
O    -7.737000000    -3.363000000     5.458000000
H    -7.871000000    -3.845000000     4.642000000
H    -7.554000000    -2.466000000     5.179000000
O    -7.402000000     4.222000000     0.477000000
H    -7.917000000     3.863000000     1.200000000
H    -7.155000000     3.458000000    -0.043000000
O    -9.650000000    -0.252000000    -0.692000000
H    -8.744000000    -0.276000000    -1.001000000
H   -10.055000000     0.457000000    -1.192000000
O    -6.379000000     2.347000000     2.804000000
H    -5.601000000     2.421000000     3.356000000
H    -6.170000000     1.647000000     2.186000000
O    -8.322000000    -4.608000000    -1.810000000
H    -7.568000000    -4.360000000    -2.344000000
H    -8.492000000    -3.840000000    -1.264000000
O    -9.298000000     1.062000000     2.002000000
H    -8.388000000     1.251000000     1.773000000
H    -9.644000000     0.596000000     1.241000000
O    -3.840000000     0.841000000    -3.296000000
H    -4.266000000    -0.006000000    -3.165000000
H    -3.672000000     1.165000000    -2.411000000
O    -9.351000000    -0.993000000    -3.728000000
H    -8.794000000    -0.250000000    -3.960000000
H    -8.813000000    -1.521000000    -3.138000000
O    -7.750000000     1.933000000    -3.075000000
H    -8.643000000     2.196000000    -2.853000000
H    -7.346000000     1.723000000    -2.233000000
O    -7.310000000    -0.958000000    -1.747000000
H    -6.704000000    -0.854000000    -2.480000000
H    -6.812000000    -1.446000000    -1.091000000
O   -10.370000000    -1.737000000     1.755000000
H    -9.456000000    -1.653000000     2.025000000
H   -10.429000000    -1.231000000     0.945000000
O    -6.050000000     0.983000000    -4.862000000
H    -6.746000000     1.234000000    -4.255000000
H    -5.239000000     1.181000000    -4.393000000
O    -7.641000000    -1.905000000     2.061000000
H    -6.851000000    -1.522000000     1.681000000
H    -7.359000000    -2.759000000     2.391000000
O    -4.695000000    -1.715000000    -2.457000000
H    -4.927000000    -2.614000000    -2.692000000
H    -4.644000000    -1.723000000    -1.501000000
