215
-1466.61851
C     0.615000000     2.448000000     4.428000000
H     1.085000000     3.083000000     3.681000000
C     1.033000000     1.106000000     4.627000000
C     0.498000000     0.325000000     5.681000000
H     0.694000000    -0.741000000     5.772000000
C     1.981000000     0.501000000     3.609000000
O     2.970000000     1.545000000     3.244000000
H     1.452000000     0.134000000     2.718000000
O     2.655000000    -0.573000000     4.238000000
C     2.877000000    -1.645000000     3.476000000
C     1.890000000    -2.561000000     3.385000000
H     1.029000000    -2.348000000     4.015000000
C     1.853000000    -3.562000000     2.430000000
O     0.694000000    -4.293000000     2.334000000
C     2.929000000    -3.657000000     1.495000000
C     2.894000000    -4.606000000     0.369000000
H     3.874000000    -4.973000000     0.055000000
C     2.124000000    -4.081000000    -0.817000000
C     2.794000000    -3.515000000    -1.902000000
H     3.871000000    -3.420000000    -1.790000000
H     2.388000000    -5.479000000     0.787000000
C     4.003000000    -2.739000000     1.617000000
H     4.748000000    -2.646000000     0.831000000
C     3.907000000    -1.769000000     2.630000000
C     4.965000000    -0.594000000     2.502000000
H     5.909000000    -0.951000000     2.085000000
H     5.165000000    -0.235000000     3.514000000
C     4.518000000     0.567000000     1.584000000
C     4.937000000     0.675000000     0.275000000
H     5.571000000    -0.117000000    -0.117000000
C     3.673000000     1.544000000     1.987000000
C     3.201000000     2.531000000     1.144000000
H     2.515000000     3.235000000     1.610000000
C     3.642000000     2.591000000    -0.164000000
O     3.138000000     3.541000000    -0.960000000
C     2.017000000     3.164000000    -1.746000000
C     0.840000000     4.180000000    -1.623000000
C    -0.082000000     4.209000000    -2.680000000
H     0.020000000     3.732000000    -3.651000000
C     0.632000000     4.949000000    -0.446000000
H     1.303000000     4.803000000     0.397000000
O     2.464000000     3.028000000    -3.080000000
H     1.653000000     2.163000000    -1.473000000
C     4.501000000     1.672000000    -0.637000000
C     4.902000000     1.677000000    -2.131000000
H     5.858000000     1.189000000    -2.334000000
H     5.089000000     2.703000000    -2.456000000
C     3.809000000     1.027000000    -2.999000000
C     3.783000000    -0.342000000    -3.258000000
H     4.626000000    -0.980000000    -3.006000000
C     2.770000000     1.804000000    -3.534000000
C     1.788000000     1.178000000    -4.303000000
H     0.979000000     1.797000000    -4.684000000
C     1.807000000    -0.178000000    -4.636000000
O     0.704000000    -0.768000000    -5.334000000
C    -0.133000000    -1.333000000    -4.358000000
C    -1.575000000    -0.998000000    -4.694000000
C    -1.880000000     0.004000000    -5.599000000
H    -1.103000000     0.370000000    -6.266000000
C    -2.583000000    -1.350000000    -3.786000000
H    -2.401000000    -2.159000000    -3.083000000
O     0.081000000    -2.735000000    -4.263000000
H     0.145000000    -0.795000000    -3.440000000
C     2.784000000    -0.927000000    -4.031000000
C     2.914000000    -2.450000000    -4.185000000
H     3.924000000    -2.864000000    -4.149000000
H     2.519000000    -2.701000000    -5.171000000
C     2.108000000    -3.116000000    -3.038000000
C     0.704000000    -3.163000000    -3.103000000
C     0.006000000    -3.786000000    -2.090000000
H    -1.075000000    -3.813000000    -2.197000000
C     0.720000000    -4.173000000    -0.949000000
O    -0.008000000    -4.799000000     0.020000000
C    -0.266000000    -4.025000000     1.223000000
H    -0.171000000    -2.942000000     1.050000000
C    -1.684000000    -4.232000000     1.805000000
C    -1.965000000    -3.802000000     3.137000000
H    -1.066000000    -3.369000000     3.569000000
C    -2.733000000    -4.638000000     1.050000000
H    -2.580000000    -4.731000000    -0.023000000
C    -4.018000000    -4.407000000     1.547000000
O    -5.152000000    -4.572000000     0.729000000
C    -4.311000000    -4.015000000     2.820000000
H    -5.352000000    -3.839000000     3.080000000
C    -3.241000000    -3.764000000     3.701000000
O    -3.590000000    -3.218000000     4.957000000
C    -2.667000000    -2.870000000     5.926000000
C    -2.313000000    -1.528000000     6.025000000
H    -2.402000000    -0.877000000     5.159000000
C    -2.147000000    -3.804000000     6.853000000
H    -2.458000000    -4.835000000     6.710000000
C    -1.474000000    -3.460000000     7.981000000
H    -1.056000000    -4.248000000     8.602000000
C    -1.219000000    -2.093000000     8.225000000
H    -0.698000000    -1.793000000     9.132000000
C    -1.629000000    -1.194000000     7.200000000
O    -1.237000000     0.129000000     7.404000000
C    -0.520000000     0.911000000     6.478000000
C    -1.023000000     2.180000000     6.199000000
H    -1.888000000     2.516000000     6.766000000
C    -0.391000000     2.957000000     5.203000000
O    -0.857000000     4.249000000     4.982000000
C    -0.357000000     5.156000000     4.127000000
C    -0.925000000     5.421000000     2.857000000
H    -1.921000000     5.012000000     2.708000000
C     0.882000000     5.661000000     4.507000000
H     1.403000000     5.404000000     5.425000000
C     1.496000000     6.525000000     3.623000000
H     2.433000000     6.959000000     3.964000000
C     0.904000000     6.876000000     2.382000000
H     1.241000000     7.722000000     1.790000000
C    -0.295000000     6.311000000     1.992000000
O    -0.844000000     6.487000000     0.746000000
C    -0.446000000     5.803000000    -0.416000000
C    -1.362000000     5.851000000    -1.491000000
H    -2.247000000     6.482000000    -1.499000000
C    -1.085000000     5.137000000    -2.593000000
O    -1.830000000     5.397000000    -3.715000000
C    -1.754000000     4.662000000    -4.902000000
C    -2.410000000     3.436000000    -5.011000000
H    -2.963000000     3.050000000    -4.158000000
C    -1.200000000     5.178000000    -6.063000000
H    -0.666000000     6.123000000    -6.117000000
C    -1.247000000     4.486000000    -7.262000000
H    -0.741000000     4.899000000    -8.131000000
C    -1.903000000     3.261000000    -7.401000000
H    -2.020000000     2.752000000    -8.354000000
C    -2.514000000     2.778000000    -6.281000000
O    -3.369000000     1.703000000    -6.398000000
C    -3.193000000     0.571000000    -5.673000000
C    -4.222000000     0.099000000    -4.784000000
H    -5.230000000     0.504000000    -4.789000000
C    -3.869000000    -0.912000000    -3.917000000
O    -4.814000000    -1.367000000    -2.999000000
C    -4.923000000    -2.671000000    -2.473000000
C    -5.205000000    -3.715000000    -3.413000000
H    -5.396000000    -3.478000000    -4.457000000
C    -5.283000000    -5.021000000    -2.941000000
H    -5.519000000    -5.812000000    -3.649000000
C    -5.285000000    -5.289000000    -1.580000000
H    -5.511000000    -6.288000000    -1.217000000
C    -5.038000000    -4.274000000    -0.672000000
C    -4.826000000    -2.957000000    -1.111000000
H    -4.519000000    -2.116000000    -0.493000000
C    -2.101000000     1.844000000     0.107000000
H    -2.867000000     2.568000000    -0.160000000
C    -1.292000000     1.398000000    -0.927000000
H    -1.442000000     1.880000000    -1.889000000
C    -0.318000000     0.452000000    -0.673000000
H     0.364000000     0.035000000    -1.379000000
C    -0.200000000    -0.125000000     0.599000000
H     0.565000000    -0.864000000     0.825000000
C    -0.950000000     0.334000000     1.667000000
H    -0.866000000    -0.161000000     2.631000000
C    -2.022000000     1.283000000     1.440000000
C    -2.897000000     1.797000000     2.581000000
O    -3.221000000     1.104000000     3.525000000
O    -3.470000000     2.837000000     2.397000000
O    -7.625000000    -1.355000000     5.007000000
H    -7.779000000    -0.506000000     5.422000000
H    -6.868000000    -1.210000000     4.438000000
O    -4.745000000     4.857000000     1.267000000
H    -5.176000000     4.346000000     0.581000000
H    -4.086000000     4.264000000     1.629000000
O    -4.402000000     1.341000000     8.273000000
H    -4.767000000     1.303000000     7.389000000
H    -5.163000000     1.448000000     8.842000000
O    -6.006000000    -2.286000000     7.207000000
H    -6.597000000    -2.020000000     6.503000000
H    -5.462000000    -2.970000000     6.817000000
O    -6.279000000     3.592000000    -0.994000000
H    -5.923000000     4.073000000    -1.741000000
H    -6.303000000     2.681000000    -1.285000000
O    -5.102000000     0.301000000     1.013000000
H    -5.253000000    -0.140000000     1.848000000
H    -4.357000000     0.878000000     1.178000000
O    -4.700000000     6.362000000     6.527000000
H    -4.138000000     5.765000000     6.033000000
H    -5.587000000     6.036000000     6.377000000
O    -6.853000000     6.109000000     3.056000000
H    -6.159000000     5.611000000     2.623000000
H    -6.980000000     5.663000000     3.894000000
O    -5.442000000     7.411000000    -0.378000000
H    -4.981000000     6.658000000    -0.006000000
H    -6.302000000     7.395000000     0.041000000
O    -4.969000000     1.990000000     5.254000000
H    -4.262000000     1.509000000     4.824000000
H    -4.685000000     2.904000000     5.230000000
O    -3.731000000     4.180000000     4.672000000
H    -3.762000000     3.732000000     3.827000000
H    -2.798000000     4.238000000     4.878000000
O    -7.604000000     0.727000000     6.614000000
H    -8.020000000     0.764000000     7.475000000
H    -7.326000000     1.626000000     6.443000000
O    -8.357000000     5.472000000    -0.159000000
H    -9.165000000     5.058000000    -0.460000000
H    -7.678000000     4.818000000    -0.320000000
O    -9.139000000     1.416000000     1.728000000
H    -8.372000000     1.554000000     2.284000000
H    -9.381000000     0.502000000     1.876000000
O    -6.555000000     0.912000000    -1.278000000
H    -7.076000000     0.184000000    -1.617000000
H    -6.209000000     0.591000000    -0.445000000
O    -6.744000000     2.025000000     3.228000000
H    -6.217000000     1.858000000     4.009000000
H    -6.154000000     2.489000000     2.635000000
O    -8.681000000     3.011000000     5.220000000
H    -9.379000000     3.313000000     4.639000000
H    -8.195000000     2.372000000     4.699000000
O    -7.481000000     5.316000000     5.696000000
H    -7.905000000     4.483000000     5.490000000
H    -8.069000000     5.735000000     6.324000000
O    -5.158000000    -1.105000000     3.769000000
H    -4.560000000    -0.361000000     3.699000000
H    -4.601000000    -1.835000000     4.040000000
