215
-1429.74886
C     1.110000000     3.035000000     4.383000000
H     1.827000000     3.630000000     3.823000000
C     1.150000000     1.664000000     4.309000000
C     0.085000000     0.952000000     4.864000000
H     0.009000000    -0.132000000     4.871000000
C     2.290000000     0.909000000     3.646000000
O     3.429000000     1.609000000     3.211000000
H     1.845000000     0.577000000     2.697000000
O     2.581000000    -0.367000000     4.302000000
C     2.811000000    -1.513000000     3.559000000
C     1.771000000    -2.409000000     3.565000000
H     0.943000000    -2.381000000     4.269000000
C     1.690000000    -3.419000000     2.625000000
O     0.602000000    -4.246000000     2.565000000
C     2.728000000    -3.636000000     1.733000000
C     2.767000000    -4.831000000     0.779000000
H     3.804000000    -5.136000000     0.626000000
C     2.048000000    -4.459000000    -0.494000000
C     2.714000000    -3.918000000    -1.570000000
H     3.800000000    -3.915000000    -1.611000000
H     2.256000000    -5.675000000     1.247000000
C     3.753000000    -2.655000000     1.651000000
H     4.549000000    -2.789000000     0.922000000
C     3.838000000    -1.619000000     2.601000000
C     5.038000000    -0.713000000     2.521000000
H     5.814000000    -1.300000000     2.027000000
H     5.428000000    -0.343000000     3.471000000
C     4.643000000     0.352000000     1.548000000
C     5.035000000     0.325000000     0.218000000
H     5.675000000    -0.466000000    -0.162000000
C     3.834000000     1.406000000     1.928000000
C     3.532000000     2.445000000     1.123000000
H     2.873000000     3.247000000     1.444000000
C     3.921000000     2.376000000    -0.190000000
O     3.520000000     3.447000000    -1.017000000
C     2.489000000     3.113000000    -2.014000000
C     1.383000000     4.186000000    -2.111000000
C     0.593000000     4.437000000    -3.235000000
H     0.909000000     4.022000000    -4.189000000
C     1.018000000     4.785000000    -0.886000000
H     1.717000000     4.574000000    -0.081000000
O     3.001000000     2.756000000    -3.306000000
H     1.986000000     2.259000000    -1.536000000
C     4.731000000     1.296000000    -0.706000000
C     5.175000000     1.116000000    -2.158000000
H     6.011000000     0.412000000    -2.153000000
H     5.536000000     2.060000000    -2.570000000
C     4.031000000     0.536000000    -2.982000000
C     3.932000000    -0.804000000    -3.198000000
H     4.632000000    -1.508000000    -2.754000000
C     3.058000000     1.417000000    -3.489000000
C     1.916000000     0.849000000    -4.104000000
H     1.125000000     1.499000000    -4.469000000
C     1.845000000    -0.483000000    -4.310000000
O     0.582000000    -0.977000000    -4.757000000
C    -0.237000000    -1.438000000    -3.611000000
C    -1.685000000    -0.961000000    -3.647000000
C    -1.953000000     0.091000000    -4.593000000
H    -1.284000000     0.511000000    -5.339000000
C    -2.725000000    -1.516000000    -2.862000000
H    -2.553000000    -2.294000000    -2.122000000
O    -0.253000000    -2.909000000    -3.618000000
H     0.138000000    -1.082000000    -2.641000000
C     2.835000000    -1.337000000    -3.889000000
C     2.592000000    -2.839000000    -3.936000000
H     3.597000000    -3.261000000    -3.860000000
H     2.272000000    -3.223000000    -4.907000000
C     1.925000000    -3.427000000    -2.693000000
C     0.516000000    -3.552000000    -2.697000000
C    -0.101000000    -4.227000000    -1.644000000
H    -1.180000000    -4.352000000    -1.667000000
C     0.668000000    -4.775000000    -0.658000000
O     0.017000000    -5.212000000     0.467000000
C    -0.311000000    -4.245000000     1.472000000
H    -0.190000000    -3.269000000     0.978000000
C    -1.791000000    -4.314000000     1.920000000
C    -2.110000000    -3.860000000     3.256000000
H    -1.377000000    -3.469000000     3.957000000
C    -2.781000000    -4.779000000     1.108000000
H    -2.620000000    -5.270000000     0.152000000
C    -4.093000000    -4.645000000     1.474000000
O    -5.097000000    -5.152000000     0.591000000
C    -4.458000000    -4.257000000     2.733000000
H    -5.483000000    -4.374000000     3.075000000
C    -3.435000000    -3.958000000     3.650000000
O    -3.779000000    -3.542000000     4.909000000
C    -3.014000000    -2.626000000     5.637000000
C    -2.922000000    -1.308000000     5.247000000
H    -3.465000000    -0.871000000     4.413000000
C    -2.260000000    -3.063000000     6.713000000
H    -2.343000000    -4.124000000     6.931000000
C    -1.485000000    -2.136000000     7.501000000
H    -0.744000000    -2.583000000     8.159000000
C    -1.462000000    -0.788000000     7.201000000
H    -0.778000000    -0.149000000     7.753000000
C    -2.195000000    -0.381000000     6.114000000
O    -2.223000000     0.943000000     5.765000000
C    -1.038000000     1.609000000     5.481000000
C    -0.934000000     2.974000000     5.755000000
H    -1.628000000     3.474000000     6.425000000
C     0.049000000     3.666000000     5.114000000
O     0.026000000     5.033000000     5.210000000
C     0.295000000     5.705000000     4.034000000
C    -0.399000000     5.634000000     2.870000000
H    -1.326000000     5.068000000     2.854000000
C     1.442000000     6.514000000     4.140000000
H     1.871000000     6.682000000     5.124000000
C     2.006000000     7.125000000     2.996000000
H     2.906000000     7.733000000     2.955000000
C     1.332000000     6.973000000     1.783000000
H     1.618000000     7.461000000     0.855000000
C     0.112000000     6.217000000     1.688000000
O    -0.571000000     6.123000000     0.514000000
C    -0.152000000     5.560000000    -0.691000000
C    -0.982000000     5.797000000    -1.861000000
H    -1.922000000     6.337000000    -1.785000000
C    -0.543000000     5.256000000    -3.132000000
O    -1.470000000     5.448000000    -4.179000000
C    -1.659000000     4.538000000    -5.212000000
C    -2.319000000     3.387000000    -4.906000000
H    -2.568000000     3.230000000    -3.859000000
C    -1.405000000     4.853000000    -6.541000000
H    -0.927000000     5.799000000    -6.783000000
C    -1.792000000     4.001000000    -7.576000000
H    -1.659000000     4.147000000    -8.645000000
C    -2.490000000     2.902000000    -7.227000000
H    -2.722000000     2.221000000    -8.042000000
C    -2.801000000     2.635000000    -5.969000000
O    -3.509000000     1.479000000    -5.704000000
C    -3.267000000     0.502000000    -4.754000000
C    -4.264000000     0.084000000    -3.894000000
H    -5.321000000     0.337000000    -3.933000000
C    -4.025000000    -0.934000000    -2.949000000
O    -5.135000000    -1.295000000    -2.181000000
C    -5.501000000    -2.591000000    -2.059000000
C    -5.832000000    -3.436000000    -3.134000000
H    -6.010000000    -2.916000000    -4.071000000
C    -6.010000000    -4.792000000    -3.029000000
H    -6.219000000    -5.394000000    -3.909000000
C    -5.693000000    -5.442000000    -1.757000000
H    -5.794000000    -6.523000000    -1.704000000
C    -5.286000000    -4.672000000    -0.702000000
C    -5.158000000    -3.286000000    -0.883000000
H    -4.811000000    -2.749000000    -0.004000000
C    -2.201000000     1.189000000    -0.005000000
H    -2.908000000     1.906000000    -0.415000000
C    -0.911000000     1.284000000    -0.459000000
H    -0.615000000     2.004000000    -1.218000000
C     0.022000000     0.336000000    -0.095000000
H     0.986000000     0.326000000    -0.532000000
C    -0.329000000    -0.646000000     0.847000000
H     0.416000000    -1.325000000     1.253000000
C    -1.637000000    -0.694000000     1.340000000
H    -1.875000000    -1.394000000     2.137000000
C    -2.620000000     0.272000000     0.951000000
C    -4.024000000     0.306000000     1.442000000
O    -4.558000000    -0.657000000     1.894000000
O    -4.625000000     1.304000000     1.239000000
O    -7.042000000    -3.042000000     5.106000000
H    -7.454000000    -3.022000000     5.970000000
H    -6.135000000    -2.780000000     5.267000000
O    -4.397000000     3.961000000    -0.986000000
H    -4.788000000     3.278000000    -1.530000000
H    -4.280000000     3.548000000    -0.130000000
O    -4.115000000     2.467000000     7.770000000
H    -3.904000000     3.000000000     7.004000000
H    -5.049000000     2.619000000     7.917000000
O    -9.121000000    -3.626000000     3.268000000
H    -8.411000000    -3.628000000     3.910000000
H    -8.861000000    -4.282000000     2.621000000
O    -6.217000000     2.629000000    -2.687000000
H    -6.653000000     3.359000000    -3.126000000
H    -6.806000000     1.886000000    -2.817000000
O    -8.171000000    -0.912000000    -0.703000000
H    -8.181000000    -0.806000000     0.248000000
H    -7.258000000    -0.765000000    -0.951000000
O    -6.857000000     5.037000000     3.026000000
H    -7.191000000     4.219000000     2.658000000
H    -7.137000000     5.710000000     2.405000000
O    -6.880000000     4.668000000     0.196000000
H    -7.210000000     3.888000000     0.642000000
H    -6.263000000     4.330000000    -0.453000000
O    -9.183000000     3.086000000     3.098000000
H    -8.928000000     2.524000000     3.830000000
H   -10.134000000     2.989000000     3.042000000
O    -7.875000000    -5.524000000     1.293000000
H    -8.365000000    -5.991000000     0.616000000
H    -7.017000000    -5.363000000     0.901000000
O    -3.752000000     4.765000000     5.780000000
H    -4.610000000     5.165000000     5.927000000
H    -3.846000000     4.295000000     4.952000000
O    -5.540000000     0.605000000     4.298000000
H    -5.507000000    -0.031000000     3.584000000
H    -5.005000000     1.337000000     3.991000000
O    -4.021000000     3.326000000     3.077000000
H    -4.659000000     3.805000000     2.549000000
H    -3.974000000     2.461000000     2.670000000
O    -6.348000000    -0.619000000     6.928000000
H    -7.011000000    -0.041000000     7.306000000
H    -6.043000000    -0.156000000     6.148000000
O    -8.861000000     3.242000000    -1.284000000
H    -8.112000000     2.897000000    -0.797000000
H    -9.597000000     2.696000000    -1.009000000
O    -7.086000000     2.267000000     1.233000000
H    -6.314000000     1.767000000     0.967000000
H    -7.503000000     1.726000000     1.903000000
O    -9.136000000    -3.102000000    -2.269000000
H    -9.054000000    -2.656000000    -1.426000000
H    -8.748000000    -2.496000000    -2.900000000
O    -8.018000000     1.942000000     5.115000000
H    -7.329000000     1.352000000     4.810000000
H    -8.442000000     1.468000000     5.830000000
O    -7.042000000    -0.708000000     1.974000000
H    -6.098000000    -0.750000000     1.819000000
H    -7.171000000    -1.180000000     2.797000000
