215
-1506.18428
C     1.083000000     3.306000000     4.389000000
H     1.754000000     3.973000000     3.854000000
C     1.279000000     1.978000000     4.501000000
C     0.354000000     1.146000000     5.160000000
H     0.543000000     0.077000000     5.104000000
C     2.313000000     1.241000000     3.591000000
O     3.423000000     2.145000000     3.266000000
H     1.861000000     0.869000000     2.660000000
O     2.840000000     0.064000000     4.250000000
C     3.020000000    -1.015000000     3.448000000
C     2.034000000    -2.024000000     3.571000000
H     1.247000000    -1.902000000     4.311000000
C     2.119000000    -3.117000000     2.720000000
O     0.982000000    -3.949000000     2.702000000
C     3.125000000    -3.290000000     1.798000000
C     3.183000000    -4.466000000     0.907000000
H     4.202000000    -4.756000000     0.643000000
C     2.496000000    -4.115000000    -0.370000000
C     3.165000000    -3.594000000    -1.496000000
H     4.231000000    -3.406000000    -1.392000000
H     2.791000000    -5.333000000     1.443000000
C     4.088000000    -2.258000000     1.677000000
H     4.902000000    -2.386000000     0.968000000
C     4.053000000    -1.130000000     2.480000000
C     5.170000000    -0.063000000     2.356000000
H     6.005000000    -0.613000000     1.918000000
H     5.429000000     0.278000000     3.361000000
C     4.705000000     1.076000000     1.498000000
C     5.010000000     1.160000000     0.141000000
H     5.680000000     0.426000000    -0.300000000
C     3.825000000     2.076000000     2.020000000
C     3.138000000     2.917000000     1.151000000
H     2.279000000     3.466000000     1.527000000
C     3.380000000     2.884000000    -0.212000000
O     2.658000000     3.717000000    -0.950000000
C     1.567000000     3.152000000    -1.716000000
C     0.335000000     4.043000000    -1.807000000
C    -0.635000000     3.950000000    -2.832000000
H    -0.404000000     3.241000000    -3.624000000
C    -0.011000000     4.840000000    -0.721000000
H     0.712000000     4.927000000     0.086000000
O     2.098000000     3.011000000    -3.030000000
H     1.246000000     2.199000000    -1.272000000
C     4.352000000     2.024000000    -0.716000000
C     4.704000000     2.007000000    -2.213000000
H     5.624000000     1.440000000    -2.370000000
H     4.699000000     2.953000000    -2.759000000
C     3.702000000     1.113000000    -2.969000000
C     3.833000000    -0.244000000    -3.223000000
H     4.722000000    -0.764000000    -2.875000000
C     2.505000000     1.722000000    -3.402000000
C     1.529000000     1.015000000    -4.086000000
H     0.635000000     1.546000000    -4.401000000
C     1.740000000    -0.368000000    -4.355000000
O     0.725000000    -1.071000000    -4.879000000
C    -0.100000000    -1.693000000    -3.886000000
C    -1.596000000    -1.473000000    -4.209000000
C    -1.962000000    -0.459000000    -5.067000000
H    -1.248000000     0.133000000    -5.634000000
C    -2.601000000    -2.435000000    -3.787000000
H    -2.314000000    -3.297000000    -3.190000000
O     0.348000000    -3.066000000    -3.795000000
H     0.025000000    -1.210000000    -2.905000000
C     2.909000000    -1.036000000    -3.913000000
C     3.176000000    -2.570000000    -3.879000000
H     4.223000000    -2.867000000    -3.792000000
H     2.665000000    -2.982000000    -4.751000000
C     2.475000000    -3.193000000    -2.658000000
C     1.097000000    -3.441000000    -2.664000000
C     0.464000000    -3.951000000    -1.543000000
H    -0.589000000    -4.215000000    -1.587000000
C     1.131000000    -4.262000000    -0.408000000
O     0.425000000    -4.717000000     0.676000000
C     0.016000000    -3.787000000     1.690000000
H     0.057000000    -2.786000000     1.237000000
C    -1.477000000    -4.047000000     2.162000000
C    -1.723000000    -3.821000000     3.499000000
H    -0.895000000    -3.536000000     4.143000000
C    -2.436000000    -4.368000000     1.282000000
H    -2.173000000    -4.533000000     0.240000000
C    -3.790000000    -4.448000000     1.739000000
O    -4.798000000    -4.694000000     0.842000000
C    -4.083000000    -4.164000000     3.048000000
H    -5.100000000    -4.144000000     3.432000000
C    -3.062000000    -3.797000000     3.931000000
O    -3.336000000    -3.425000000     5.231000000
C    -2.467000000    -2.605000000     5.992000000
C    -2.546000000    -1.217000000     5.883000000
H    -3.343000000    -0.782000000     5.285000000
C    -1.568000000    -3.264000000     6.798000000
H    -1.549000000    -4.348000000     6.871000000
C    -0.773000000    -2.461000000     7.592000000
H    -0.057000000    -2.996000000     8.211000000
C    -0.782000000    -1.057000000     7.495000000
H    -0.132000000    -0.511000000     8.175000000
C    -1.697000000    -0.432000000     6.598000000
O    -1.768000000     0.938000000     6.395000000
C    -0.788000000     1.667000000     5.815000000
C    -0.993000000     3.046000000     5.691000000
H    -1.850000000     3.471000000     6.206000000
C    -0.043000000     3.792000000     4.954000000
O    -0.418000000     5.131000000     4.726000000
C    -0.092000000     5.788000000     3.581000000
C    -0.882000000     5.602000000     2.471000000
H    -1.605000000     4.795000000     2.380000000
C     0.830000000     6.808000000     3.791000000
H     1.495000000     6.956000000     4.638000000
C     0.996000000     7.673000000     2.733000000
H     1.793000000     8.413000000     2.722000000
C     0.249000000     7.516000000     1.549000000
H     0.398000000     8.207000000     0.723000000
C    -0.703000000     6.503000000     1.460000000
O    -1.515000000     6.341000000     0.393000000
C    -1.218000000     5.527000000    -0.701000000
C    -2.147000000     5.476000000    -1.736000000
H    -3.059000000     6.068000000    -1.749000000
C    -1.832000000     4.632000000    -2.748000000
O    -2.811000000     4.635000000    -3.760000000
C    -2.682000000     3.956000000    -4.923000000
C    -3.211000000     2.623000000    -5.067000000
H    -3.740000000     2.169000000    -4.233000000
C    -2.228000000     4.561000000    -6.103000000
H    -1.797000000     5.559000000    -6.099000000
C    -2.264000000     3.929000000    -7.364000000
H    -2.007000000     4.502000000    -8.252000000
C    -2.789000000     2.656000000    -7.489000000
H    -2.847000000     2.201000000    -8.474000000
C    -3.177000000     1.984000000    -6.332000000
O    -3.614000000     0.724000000    -6.370000000
C    -3.307000000    -0.269000000    -5.389000000
C    -4.277000000    -1.119000000    -4.960000000
H    -5.309000000    -0.959000000    -5.263000000
C    -3.894000000    -2.197000000    -4.149000000
O    -4.908000000    -3.052000000    -3.639000000
C    -4.756000000    -4.118000000    -2.757000000
C    -4.329000000    -5.394000000    -3.208000000
H    -4.299000000    -5.627000000    -4.270000000
C    -4.271000000    -6.488000000    -2.343000000
H    -4.077000000    -7.506000000    -2.670000000
C    -4.335000000    -6.274000000    -0.924000000
H    -4.291000000    -7.161000000    -0.297000000
C    -4.510000000    -4.974000000    -0.469000000
C    -4.827000000    -3.950000000    -1.381000000
H    -5.087000000    -2.964000000    -1.004000000
C    -2.121000000     1.548000000     0.173000000
H    -2.759000000     2.278000000    -0.318000000
C    -1.135000000     0.966000000    -0.611000000
H    -1.192000000     1.200000000    -1.671000000
C    -0.181000000     0.089000000    -0.034000000
H     0.651000000    -0.338000000    -0.588000000
C    -0.315000000    -0.106000000     1.345000000
H     0.471000000    -0.665000000     1.846000000
C    -1.286000000     0.456000000     2.112000000
H    -1.366000000     0.145000000     3.150000000
C    -2.264000000     1.296000000     1.534000000
C    -3.332000000     1.993000000     2.337000000
O    -3.733000000     1.409000000     3.331000000
O    -3.832000000     3.026000000     1.923000000
O    -6.415000000    -2.603000000     5.161000000
H    -5.868000000    -2.088000000     4.569000000
H    -6.111000000    -2.365000000     6.037000000
O    -4.760000000     4.422000000    -0.128000000
H    -5.303000000     3.900000000    -0.719000000
H    -4.512000000     3.814000000     0.568000000
O    -6.474000000     2.870000000    -1.669000000
H    -5.926000000     2.099000000    -1.814000000
H    -7.247000000     2.532000000    -1.215000000
O    -5.579000000     0.069000000     0.290000000
H    -5.497000000     0.836000000     0.856000000
H    -6.423000000    -0.315000000     0.527000000
O    -5.736000000     3.677000000     6.786000000
H    -5.190000000     3.929000000     6.042000000
H    -6.526000000     4.210000000     6.695000000
O    -6.315000000     5.384000000     2.727000000
H    -5.977000000     5.748000000     1.908000000
H    -6.439000000     4.453000000     2.542000000
O    -6.066000000     6.703000000    -1.083000000
H    -5.616000000     6.085000000    -0.507000000
H    -5.623000000     7.538000000    -0.933000000
O    -2.789000000     7.487000000     5.263000000
H    -3.526000000     7.056000000     5.695000000
H    -2.490000000     6.855000000     4.610000000
O    -3.899000000     7.114000000     1.700000000
H    -3.770000000     6.217000000     1.392000000
H    -3.016000000     7.482000000     1.740000000
O    -5.860000000     1.432000000     5.051000000
H    -5.023000000     1.405000000     4.586000000
H    -5.683000000     1.957000000     5.831000000
O    -4.353000000     4.329000000     4.440000000
H    -3.974000000     3.726000000     3.800000000
H    -4.962000000     4.865000000     3.933000000
O    -8.110000000     0.134000000     4.089000000
H    -7.851000000    -0.469000000     3.393000000
H    -7.290000000     0.364000000     4.525000000
O    -9.842000000     2.125000000     3.076000000
H    -9.062000000     2.121000000     3.630000000
H   -10.499000000     1.649000000     3.583000000
O    -8.389000000     2.073000000     0.343000000
H    -7.784000000     2.562000000     0.901000000
H    -8.852000000     1.490000000     0.945000000
O    -5.011000000     0.607000000    -2.291000000
H    -4.347000000     0.016000000    -2.646000000
H    -5.093000000     0.350000000    -1.372000000
O    -6.355000000     2.339000000     2.288000000
H    -6.438000000     2.004000000     3.181000000
H    -5.434000000     2.588000000     2.211000000
O    -7.782000000    -1.504000000     0.700000000
H    -7.925000000    -2.330000000     0.236000000
H    -8.650000000    -1.105000000     0.750000000
O    -7.388000000     5.688000000     5.724000000
H    -7.592000000     5.901000000     4.813000000
H    -8.206000000     5.337000000     6.076000000
O    -4.918000000    -1.048000000     3.278000000
H    -4.488000000    -0.200000000     3.391000000
H    -4.681000000    -1.321000000     2.392000000
