215
-1438.91465
C     0.513000000     2.747000000     4.623000000
H     0.882000000     3.354000000     3.800000000
C     0.870000000     1.335000000     4.773000000
C     0.177000000     0.520000000     5.689000000
H     0.335000000    -0.554000000     5.729000000
C     1.952000000     0.806000000     3.879000000
O     2.986000000     1.836000000     3.603000000
H     1.365000000     0.582000000     2.977000000
O     2.642000000    -0.348000000     4.441000000
C     3.046000000    -1.263000000     3.543000000
C     2.078000000    -2.320000000     3.474000000
H     1.153000000    -2.312000000     4.045000000
C     2.222000000    -3.313000000     2.511000000
O     1.169000000    -4.250000000     2.334000000
C     3.209000000    -3.248000000     1.590000000
C     3.352000000    -4.337000000     0.520000000
H     4.359000000    -4.574000000     0.171000000
C     2.662000000    -3.973000000    -0.714000000
C     3.300000000    -3.176000000    -1.740000000
H     4.287000000    -2.760000000    -1.555000000
H     2.978000000    -5.315000000     0.830000000
C     4.200000000    -2.180000000     1.705000000
H     5.092000000    -2.146000000     1.084000000
C     4.121000000    -1.184000000     2.638000000
C     5.099000000    -0.076000000     2.570000000
H     6.081000000    -0.383000000     2.203000000
H     5.238000000     0.255000000     3.602000000
C     4.526000000     1.098000000     1.790000000
C     4.929000000     1.305000000     0.455000000
H     5.730000000     0.705000000     0.030000000
C     3.450000000     1.889000000     2.296000000
C     2.733000000     2.781000000     1.483000000
H     1.878000000     3.359000000     1.825000000
C     3.203000000     2.853000000     0.137000000
O     2.585000000     3.741000000    -0.676000000
C     1.542000000     3.192000000    -1.525000000
C     0.236000000     3.962000000    -1.377000000
C    -0.605000000     3.989000000    -2.519000000
H    -0.289000000     3.561000000    -3.466000000
C    -0.197000000     4.514000000    -0.173000000
H     0.458000000     4.593000000     0.691000000
O     1.979000000     3.166000000    -2.924000000
H     1.284000000     2.157000000    -1.257000000
C     4.292000000     2.152000000    -0.374000000
C     4.654000000     2.307000000    -1.823000000
H     5.646000000     1.970000000    -2.130000000
H     4.588000000     3.365000000    -2.085000000
C     3.745000000     1.489000000    -2.719000000
C     4.090000000     0.138000000    -2.930000000
H     4.958000000    -0.295000000    -2.440000000
C     2.551000000     1.921000000    -3.259000000
C     1.761000000     1.158000000    -4.068000000
H     0.878000000     1.637000000    -4.483000000
C     2.085000000    -0.133000000    -4.339000000
O     1.236000000    -0.843000000    -5.058000000
C     0.260000000    -1.559000000    -4.254000000
C    -1.148000000    -1.415000000    -4.816000000
C    -1.595000000    -0.301000000    -5.565000000
H    -0.868000000     0.471000000    -5.806000000
C    -2.128000000    -2.270000000    -4.208000000
H    -1.808000000    -2.993000000    -3.463000000
O     0.630000000    -2.918000000    -4.133000000
H     0.275000000    -1.113000000    -3.249000000
C     3.242000000    -0.654000000    -3.767000000
C     3.532000000    -2.099000000    -3.987000000
H     4.609000000    -2.279000000    -3.981000000
H     3.211000000    -2.358000000    -4.999000000
C     2.687000000    -2.856000000    -2.949000000
C     1.350000000    -3.246000000    -3.068000000
C     0.651000000    -3.917000000    -2.011000000
H    -0.419000000    -4.105000000    -2.055000000
C     1.334000000    -4.285000000    -0.832000000
O     0.547000000    -4.859000000     0.159000000
C     0.250000000    -3.996000000     1.277000000
H     0.398000000    -2.965000000     0.924000000
C    -1.244000000    -4.137000000     1.728000000
C    -1.775000000    -3.424000000     2.842000000
H    -1.063000000    -2.955000000     3.516000000
C    -2.150000000    -4.784000000     0.832000000
H    -1.796000000    -5.482000000     0.077000000
C    -3.485000000    -4.616000000     1.065000000
O    -4.440000000    -5.162000000     0.208000000
C    -3.996000000    -3.952000000     2.188000000
H    -5.065000000    -3.836000000     2.353000000
C    -3.141000000    -3.316000000     3.119000000
O    -3.663000000    -2.546000000     4.127000000
C    -3.087000000    -2.358000000     5.355000000
C    -2.559000000    -1.181000000     5.666000000
H    -2.497000000    -0.407000000     4.905000000
C    -3.152000000    -3.337000000     6.339000000
H    -3.763000000    -4.209000000     6.120000000
C    -2.614000000    -3.178000000     7.584000000
H    -2.770000000    -3.975000000     8.306000000
C    -2.074000000    -1.931000000     7.914000000
H    -1.805000000    -1.543000000     8.894000000
C    -2.008000000    -0.948000000     6.925000000
O    -1.629000000     0.349000000     7.251000000
C    -0.758000000     1.125000000     6.528000000
C    -0.938000000     2.515000000     6.587000000
H    -1.633000000     2.980000000     7.282000000
C    -0.322000000     3.309000000     5.545000000
O    -0.503000000     4.692000000     5.428000000
C    -0.359000000     5.488000000     4.319000000
C    -1.039000000     5.245000000     3.092000000
H    -1.640000000     4.341000000     3.033000000
C     0.423000000     6.635000000     4.365000000
H     0.906000000     6.971000000     5.279000000
C     0.652000000     7.500000000     3.222000000
H     1.348000000     8.312000000     3.416000000
C    -0.126000000     7.328000000     2.097000000
H    -0.019000000     7.987000000     1.239000000
C    -0.985000000     6.201000000     2.041000000
O    -1.820000000     5.941000000     0.925000000
C    -1.411000000     5.196000000    -0.122000000
C    -2.211000000     5.190000000    -1.222000000
H    -3.145000000     5.743000000    -1.283000000
C    -1.808000000     4.614000000    -2.439000000
O    -2.774000000     4.614000000    -3.397000000
C    -2.564000000     4.146000000    -4.648000000
C    -2.934000000     2.845000000    -4.927000000
H    -3.403000000     2.234000000    -4.160000000
C    -1.993000000     4.941000000    -5.628000000
H    -1.641000000     5.947000000    -5.414000000
C    -1.911000000     4.554000000    -6.955000000
H    -1.497000000     5.271000000    -7.659000000
C    -2.323000000     3.184000000    -7.258000000
H    -2.374000000     2.731000000    -8.245000000
C    -2.808000000     2.327000000    -6.240000000
O    -3.380000000     1.076000000    -6.600000000
C    -2.958000000    -0.145000000    -5.963000000
C    -3.864000000    -1.070000000    -5.461000000
H    -4.891000000    -0.878000000    -5.761000000
C    -3.458000000    -2.063000000    -4.548000000
O    -4.456000000    -2.771000000    -3.931000000
C    -4.298000000    -3.909000000    -3.208000000
C    -3.938000000    -5.054000000    -3.875000000
H    -3.767000000    -4.962000000    -4.945000000
C    -3.708000000    -6.258000000    -3.206000000
H    -3.388000000    -7.110000000    -3.801000000
C    -3.814000000    -6.306000000    -1.836000000
H    -3.634000000    -7.188000000    -1.226000000
C    -4.183000000    -5.192000000    -1.154000000
C    -4.410000000    -3.989000000    -1.827000000
H    -4.717000000    -3.071000000    -1.332000000
C    -3.351000000     0.293000000    -1.108000000
H    -3.871000000    -0.143000000    -1.957000000
C    -2.252000000    -0.437000000    -0.507000000
H    -2.021000000    -1.464000000    -0.780000000
C    -1.508000000     0.184000000     0.440000000
H    -0.645000000    -0.211000000     0.963000000
C    -1.831000000     1.439000000     0.944000000
H    -1.249000000     1.980000000     1.686000000
C    -2.960000000     2.113000000     0.402000000
H    -3.219000000     3.086000000     0.812000000
C    -3.700000000     1.583000000    -0.642000000
C    -4.937000000     2.343000000    -1.037000000
O    -5.429000000     3.184000000    -0.347000000
O    -5.478000000     2.011000000    -2.065000000
O    -7.801000000    -1.334000000    -4.924000000
H    -7.800000000    -0.965000000    -5.807000000
H    -7.250000000    -0.739000000    -4.415000000
O    -5.809000000     5.008000000     1.667000000
H    -6.752000000     4.923000000     1.809000000
H    -5.623000000     4.419000000     0.936000000
O    -7.135000000     5.144000000    -4.600000000
H    -7.705000000     4.454000000    -4.260000000
H    -6.849000000     5.624000000    -3.823000000
O    -5.657000000     5.522000000    -2.076000000
H    -4.975000000     4.961000000    -2.446000000
H    -6.009000000     5.018000000    -1.342000000
O    -9.425000000     1.031000000     1.984000000
H    -8.628000000     1.443000000     1.650000000
H    -9.334000000     0.108000000     1.749000000
O    -7.447000000    -1.240000000    -1.339000000
H    -7.686000000    -2.154000000    -1.494000000
H    -6.929000000    -0.995000000    -2.106000000
O    -9.290000000     4.782000000    -0.497000000
H    -8.634000000     4.309000000    -1.010000000
H   -10.124000000     4.558000000    -0.909000000
O    -4.700000000     7.597000000    -3.378000000
H    -5.223000000     7.010000000    -2.831000000
H    -4.632000000     7.144000000    -4.218000000
O    -8.969000000    -1.579000000     1.097000000
H    -8.428000000    -1.485000000     0.313000000
H    -8.741000000    -2.442000000     1.443000000
O    -4.101000000     7.202000000     1.543000000
H    -3.384000000     6.844000000     1.020000000
H    -4.790000000     6.540000000     1.490000000
O    -7.334000000     2.231000000     1.167000000
H    -6.710000000     2.366000000     0.453000000
H    -7.670000000     3.107000000     1.359000000
O    -8.210000000     7.574000000    -0.334000000
H    -8.022000000     6.646000000    -0.191000000
H    -8.306000000     7.937000000     0.546000000
O    -6.183000000     3.080000000     4.853000000
H    -5.718000000     3.466000000     4.111000000
H    -5.607000000     2.379000000     5.158000000
O    -8.340000000     4.854000000     2.039000000
H    -8.925000000     5.080000000     2.762000000
H    -8.927000000     4.657000000     1.309000000
O    -6.523000000     0.710000000    -3.983000000
H    -6.912000000     1.439000000    -4.466000000
H    -6.104000000     1.120000000    -3.226000000
O    -7.821000000     3.023000000    -1.947000000
H    -8.317000000     2.227000000    -2.141000000
H    -6.926000000     2.718000000    -1.799000000
O    -6.579000000     2.171000000    -6.387000000
H    -5.717000000     2.005000000    -6.005000000
H    -6.509000000     1.848000000    -7.286000000
O    -9.357000000     0.879000000    -1.731000000
H    -9.965000000     0.635000000    -1.034000000
H    -8.797000000     0.110000000    -1.841000000
O    -5.121000000    -1.185000000     1.246000000
H    -5.737000000    -0.935000000     0.557000000
H    -4.265000000    -1.170000000     0.819000000
