215
-1457.43706
C     0.783000000     3.118000000     4.767000000
H     1.713000000     3.656000000     4.603000000
C     0.863000000     1.704000000     4.641000000
C    -0.245000000     0.952000000     5.063000000
H    -0.118000000    -0.126000000     5.007000000
C     1.989000000     1.027000000     3.865000000
O     3.124000000     1.946000000     3.649000000
H     1.586000000     0.681000000     2.902000000
O     2.395000000    -0.288000000     4.428000000
C     2.721000000    -1.211000000     3.507000000
C     1.736000000    -2.208000000     3.307000000
H     0.794000000    -2.248000000     3.849000000
C     1.994000000    -3.204000000     2.450000000
O     0.991000000    -4.109000000     2.283000000
C     3.119000000    -3.229000000     1.634000000
C     3.317000000    -4.338000000     0.511000000
H     4.365000000    -4.451000000     0.226000000
C     2.527000000    -3.951000000    -0.757000000
C     3.159000000    -3.323000000    -1.813000000
H     4.158000000    -2.926000000    -1.647000000
H     2.917000000    -5.285000000     0.880000000
C     4.062000000    -2.175000000     1.700000000
H     4.857000000    -2.103000000     0.962000000
C     3.904000000    -1.137000000     2.682000000
C     4.923000000     0.010000000     2.794000000
H     5.948000000    -0.339000000     2.650000000
H     4.898000000     0.342000000     3.834000000
C     4.490000000     1.134000000     1.868000000
C     4.936000000     1.271000000     0.543000000
H     5.686000000     0.546000000     0.239000000
C     3.550000000     2.036000000     2.343000000
C     2.910000000     2.895000000     1.470000000
H     2.078000000     3.471000000     1.866000000
C     3.356000000     3.039000000     0.148000000
O     2.684000000     3.926000000    -0.634000000
C     1.679000000     3.375000000    -1.424000000
C     0.417000000     4.200000000    -1.414000000
C    -0.489000000     4.103000000    -2.419000000
H    -0.367000000     3.493000000    -3.310000000
C     0.206000000     5.117000000    -0.376000000
H     0.905000000     5.070000000     0.455000000
O     2.085000000     3.166000000    -2.804000000
H     1.348000000     2.426000000    -0.977000000
C     4.389000000     2.224000000    -0.406000000
C     4.711000000     2.137000000    -1.899000000
H     5.748000000     1.796000000    -1.881000000
H     4.824000000     3.147000000    -2.298000000
C     3.654000000     1.374000000    -2.727000000
C     3.878000000     0.030000000    -3.071000000
H     4.812000000    -0.396000000    -2.714000000
C     2.358000000     1.886000000    -3.138000000
C     1.490000000     1.206000000    -3.970000000
H     0.556000000     1.717000000    -4.186000000
C     1.790000000    -0.143000000    -4.220000000
O     0.858000000    -0.866000000    -4.960000000
C     0.022000000    -1.756000000    -4.235000000
C    -1.397000000    -1.711000000    -4.742000000
C    -2.032000000    -0.467000000    -4.876000000
H    -1.467000000     0.461000000    -4.856000000
C    -2.241000000    -2.850000000    -4.688000000
H    -1.875000000    -3.821000000    -4.363000000
O     0.515000000    -3.110000000    -4.287000000
H    -0.078000000    -1.555000000    -3.158000000
C     2.976000000    -0.695000000    -3.799000000
C     3.272000000    -2.186000000    -4.077000000
H     4.327000000    -2.467000000    -4.050000000
H     3.021000000    -2.495000000    -5.094000000
C     2.541000000    -3.039000000    -2.999000000
C     1.262000000    -3.541000000    -3.205000000
C     0.610000000    -4.179000000    -2.113000000
H    -0.437000000    -4.462000000    -2.186000000
C     1.237000000    -4.459000000    -0.925000000
O     0.418000000    -4.839000000     0.175000000
C     0.053000000    -3.886000000     1.173000000
H     0.197000000    -2.874000000     0.766000000
C    -1.350000000    -3.997000000     1.670000000
C    -1.696000000    -3.765000000     2.978000000
H    -1.007000000    -3.578000000     3.797000000
C    -2.310000000    -4.201000000     0.740000000
H    -2.049000000    -4.466000000    -0.281000000
C    -3.673000000    -4.098000000     1.092000000
O    -4.668000000    -4.255000000     0.152000000
C    -4.028000000    -3.939000000     2.435000000
H    -5.070000000    -4.039000000     2.727000000
C    -3.020000000    -3.762000000     3.386000000
O    -3.336000000    -3.681000000     4.745000000
C    -2.857000000    -2.734000000     5.591000000
C    -3.091000000    -1.393000000     5.299000000
H    -3.708000000    -1.184000000     4.428000000
C    -2.147000000    -3.148000000     6.761000000
H    -1.986000000    -4.212000000     6.915000000
C    -1.604000000    -2.095000000     7.591000000
H    -1.163000000    -2.289000000     8.566000000
C    -1.835000000    -0.833000000     7.255000000
H    -1.488000000    -0.060000000     7.936000000
C    -2.481000000    -0.435000000     6.124000000
O    -2.558000000     0.911000000     5.885000000
C    -1.409000000     1.591000000     5.550000000
C    -1.442000000     2.995000000     5.604000000
H    -2.364000000     3.476000000     5.922000000
C    -0.399000000     3.725000000     5.149000000
O    -0.351000000     5.161000000     5.228000000
C     0.071000000     5.871000000     4.097000000
C    -0.707000000     6.010000000     2.921000000
H    -1.632000000     5.438000000     2.896000000
C     1.376000000     6.413000000     4.026000000
H     2.094000000     6.185000000     4.810000000
C     1.837000000     7.103000000     2.938000000
H     2.896000000     7.347000000     2.936000000
C     1.025000000     7.367000000     1.841000000
H     1.313000000     7.916000000     0.948000000
C    -0.209000000     6.740000000     1.840000000
O    -1.026000000     6.796000000     0.711000000
C    -0.851000000     5.925000000    -0.334000000
C    -1.746000000     5.846000000    -1.405000000
H    -2.587000000     6.534000000    -1.433000000
C    -1.634000000     4.896000000    -2.385000000
O    -2.583000000     4.924000000    -3.389000000
C    -2.569000000     4.053000000    -4.487000000
C    -3.345000000     2.899000000    -4.402000000
H    -4.003000000     2.836000000    -3.539000000
C    -1.869000000     4.346000000    -5.680000000
H    -1.256000000     5.242000000    -5.738000000
C    -1.884000000     3.353000000    -6.717000000
H    -1.401000000     3.655000000    -7.644000000
C    -2.583000000     2.139000000    -6.556000000
H    -2.678000000     1.385000000    -7.333000000
C    -3.318000000     1.971000000    -5.406000000
O    -4.067000000     0.797000000    -5.288000000
C    -3.418000000    -0.411000000    -5.097000000
C    -4.245000000    -1.490000000    -5.025000000
H    -5.283000000    -1.376000000    -5.326000000
C    -3.613000000    -2.712000000    -4.843000000
O    -4.387000000    -3.767000000    -4.529000000
C    -4.279000000    -4.561000000    -3.413000000
C    -4.160000000    -5.967000000    -3.591000000
H    -3.991000000    -6.429000000    -4.560000000
C    -4.138000000    -6.752000000    -2.422000000
H    -3.961000000    -7.820000000    -2.520000000
C    -4.229000000    -6.133000000    -1.164000000
H    -4.117000000    -6.760000000    -0.284000000
C    -4.480000000    -4.808000000    -1.063000000
C    -4.529000000    -3.998000000    -2.182000000
H    -4.673000000    -2.930000000    -2.037000000
C    -2.040000000     1.417000000    -0.780000000
H    -2.211000000     2.179000000    -1.536000000
C    -0.956000000     0.562000000    -0.794000000
H    -0.342000000     0.510000000    -1.690000000
C    -0.667000000    -0.340000000     0.228000000
H     0.199000000    -0.939000000     0.129000000
C    -1.514000000    -0.441000000     1.321000000
H    -1.279000000    -1.068000000     2.177000000
C    -2.695000000     0.354000000     1.330000000
H    -3.369000000     0.264000000     2.177000000
C    -3.008000000     1.211000000     0.272000000
C    -4.268000000     1.981000000     0.343000000
O    -4.971000000     2.002000000     1.349000000
O    -4.523000000     2.675000000    -0.584000000
O    -8.264000000    -0.424000000    -3.152000000
H    -8.294000000     0.231000000    -3.848000000
H    -7.497000000    -0.185000000    -2.631000000
O    -5.351000000     4.899000000     0.855000000
H    -4.730000000     4.566000000     0.207000000
H    -5.840000000     4.126000000     1.137000000
O    -6.704000000     5.028000000    -4.566000000
H    -7.332000000     4.328000000    -4.742000000
H    -6.653000000     5.071000000    -3.611000000
O    -7.115000000     5.955000000     3.271000000
H    -8.059000000     5.893000000     3.129000000
H    -6.751000000     5.207000000     2.797000000
O    -5.865000000     4.510000000    -1.993000000
H    -5.361000000     3.781000000    -1.629000000
H    -6.487000000     4.739000000    -1.302000000
O    -6.840000000    -1.240000000     0.610000000
H    -6.376000000    -2.078000000     0.596000000
H    -7.766000000    -1.481000000     0.645000000
O    -6.050000000     1.109000000     5.593000000
H    -5.626000000     0.533000000     4.957000000
H    -6.983000000     1.048000000     5.388000000
O    -8.631000000     3.851000000    -0.774000000
H    -8.496000000     3.292000000    -0.009000000
H    -8.274000000     3.346000000    -1.505000000
O    -4.806000000     7.232000000    -3.045000000
H    -4.983000000     6.325000000    -2.795000000
H    -5.660000000     7.664000000    -3.001000000
O    -4.027000000     5.698000000     4.786000000
H    -3.761000000     6.264000000     4.061000000
H    -4.584000000     5.034000000     4.379000000
O    -3.777000000     6.887000000     2.253000000
H    -3.008000000     7.213000000     1.785000000
H    -4.219000000     6.321000000     1.620000000
O    -8.467000000     1.974000000     4.530000000
H    -8.281000000     2.505000000     3.755000000
H    -9.207000000     2.413000000     4.949000000
O    -4.746000000     3.463000000     3.568000000
H    -4.843000000     2.853000000     2.837000000
H    -4.990000000     2.952000000     4.340000000
O    -8.688000000     6.575000000    -1.300000000
H    -9.440000000     6.727000000    -0.728000000
H    -8.527000000     5.633000000    -1.239000000
O    -5.897000000     0.606000000    -1.802000000
H    -6.293000000     0.139000000    -1.066000000
H    -5.279000000     1.214000000    -1.395000000
O    -7.865000000     2.482000000     1.501000000
H    -8.041000000     1.542000000     1.542000000
H    -6.952000000     2.566000000     1.776000000
O    -6.569000000     1.669000000    -4.545000000
H    -6.127000000     1.417000000    -3.734000000
H    -5.877000000     1.662000000    -5.206000000
O   -10.382000000     0.727000000    -0.897000000
H   -10.609000000     0.929000000     0.010000000
H    -9.671000000     0.090000000    -0.830000000
O    -6.042000000    -0.006000000     2.995000000
H    -5.556000000     0.591000000     2.426000000
H    -6.474000000    -0.612000000     2.394000000
