215
-1466.81744
C     1.156000000     1.702000000     4.739000000
H     1.827000000     2.331000000     4.161000000
C     1.226000000     0.319000000     4.515000000
C     0.251000000    -0.522000000     5.090000000
H     0.242000000    -1.587000000     4.871000000
C     2.253000000    -0.277000000     3.522000000
O     3.438000000     0.560000000     3.476000000
H     1.776000000    -0.250000000     2.531000000
O     2.651000000    -1.671000000     3.854000000
C     2.630000000    -2.498000000     2.805000000
C     1.512000000    -3.341000000     2.641000000
H     0.662000000    -3.183000000     3.299000000
C     1.427000000    -4.183000000     1.526000000
O     0.229000000    -4.877000000     1.396000000
C     2.402000000    -4.222000000     0.535000000
C     2.207000000    -5.123000000    -0.665000000
H     3.163000000    -5.465000000    -1.067000000
C     1.520000000    -4.285000000    -1.713000000
C     2.244000000    -3.558000000    -2.684000000
H     3.318000000    -3.557000000    -2.517000000
H     1.599000000    -6.007000000    -0.459000000
C     3.540000000    -3.409000000     0.789000000
H     4.327000000    -3.422000000     0.039000000
C     3.663000000    -2.574000000     1.892000000
C     4.826000000    -1.615000000     2.035000000
H     5.725000000    -2.011000000     1.558000000
H     5.073000000    -1.484000000     3.091000000
C     4.557000000    -0.210000000     1.493000000
C     4.962000000     0.058000000     0.180000000
H     5.451000000    -0.752000000    -0.356000000
C     3.983000000     0.794000000     2.259000000
C     3.768000000     2.073000000     1.740000000
H     3.306000000     2.855000000     2.337000000
C     4.047000000     2.300000000     0.379000000
O     3.498000000     3.441000000    -0.172000000
C     2.407000000     3.279000000    -1.141000000
C     1.331000000     4.314000000    -0.904000000
C     0.637000000     4.940000000    -1.968000000
H     0.864000000     4.621000000    -2.981000000
C     1.058000000     4.692000000     0.417000000
H     1.516000000     4.223000000     1.284000000
O     2.957000000     3.340000000    -2.496000000
H     1.823000000     2.350000000    -1.064000000
C     4.673000000     1.299000000    -0.357000000
C     4.978000000     1.490000000    -1.850000000
H     5.807000000     0.838000000    -2.133000000
H     5.298000000     2.513000000    -2.060000000
C     3.857000000     1.118000000    -2.674000000
C     3.732000000    -0.225000000    -3.205000000
H     4.479000000    -0.944000000    -2.878000000
C     2.958000000     2.114000000    -3.078000000
C     1.821000000     1.731000000    -3.882000000
H     1.047000000     2.448000000    -4.144000000
C     1.712000000     0.403000000    -4.390000000
O     0.509000000     0.055000000    -5.035000000
C    -0.562000000    -0.651000000    -4.362000000
C    -1.820000000     0.015000000    -4.557000000
C    -1.951000000     1.209000000    -5.307000000
H    -1.145000000     1.564000000    -5.945000000
C    -2.943000000    -0.460000000    -3.850000000
H    -2.955000000    -1.433000000    -3.366000000
O    -0.563000000    -2.058000000    -4.577000000
H    -0.333000000    -0.620000000    -3.287000000
C     2.678000000    -0.567000000    -4.090000000
C     2.557000000    -1.990000000    -4.605000000
H     3.514000000    -2.505000000    -4.712000000
H     2.104000000    -1.958000000    -5.598000000
C     1.659000000    -2.756000000    -3.682000000
C     0.225000000    -2.802000000    -3.780000000
C    -0.482000000    -3.345000000    -2.733000000
H    -1.563000000    -3.234000000    -2.689000000
C     0.119000000    -4.170000000    -1.746000000
O    -0.667000000    -4.763000000    -0.817000000
C    -0.673000000    -4.195000000     0.509000000
H    -0.423000000    -3.143000000     0.310000000
C    -2.101000000    -4.310000000     1.144000000
C    -2.248000000    -4.540000000     2.525000000
H    -1.409000000    -4.714000000     3.193000000
C    -3.192000000    -4.065000000     0.344000000
H    -3.069000000    -3.931000000    -0.728000000
C    -4.498000000    -4.119000000     0.918000000
O    -5.636000000    -3.869000000     0.193000000
C    -4.617000000    -4.249000000     2.293000000
H    -5.633000000    -4.152000000     2.668000000
C    -3.511000000    -4.415000000     3.136000000
O    -3.687000000    -4.578000000     4.470000000
C    -2.874000000    -4.016000000     5.376000000
C    -2.544000000    -2.661000000     5.332000000
H    -2.934000000    -1.939000000     4.620000000
C    -2.457000000    -4.831000000     6.436000000
H    -2.810000000    -5.857000000     6.504000000
C    -1.646000000    -4.338000000     7.451000000
H    -1.499000000    -4.934000000     8.349000000
C    -1.304000000    -2.984000000     7.432000000
H    -0.801000000    -2.486000000     8.257000000
C    -1.746000000    -2.146000000     6.399000000
O    -1.626000000    -0.767000000     6.598000000
C    -0.679000000    -0.011000000     5.973000000
C    -0.789000000     1.371000000     6.217000000
H    -1.487000000     1.799000000     6.932000000
C     0.113000000     2.289000000     5.548000000
O     0.086000000     3.637000000     5.898000000
C     0.654000000     4.515000000     5.003000000
C    -0.002000000     4.780000000     3.842000000
H    -0.915000000     4.269000000     3.547000000
C     1.772000000     5.176000000     5.415000000
H     2.198000000     4.884000000     6.371000000
C     2.349000000     6.146000000     4.574000000
H     3.211000000     6.701000000     4.935000000
C     1.669000000     6.505000000     3.413000000
H     2.044000000     7.347000000     2.838000000
C     0.543000000     5.755000000     3.058000000
O    -0.093000000     6.214000000     1.947000000
C     0.088000000     5.671000000     0.676000000
C    -0.652000000     6.152000000    -0.409000000
H    -1.366000000     6.929000000    -0.149000000
C    -0.464000000     5.746000000    -1.724000000
O    -1.136000000     6.272000000    -2.838000000
C    -1.246000000     5.665000000    -4.079000000
C    -2.123000000     4.630000000    -4.266000000
H    -2.789000000     4.284000000    -3.480000000
C    -0.299000000     6.013000000    -5.051000000
H     0.377000000     6.855000000    -4.932000000
C    -0.288000000     5.273000000    -6.206000000
H     0.479000000     5.562000000    -6.920000000
C    -1.243000000     4.320000000    -6.480000000
H    -1.108000000     3.753000000    -7.398000000
C    -2.180000000     4.025000000    -5.458000000
O    -3.246000000     3.156000000    -5.699000000
C    -3.166000000     1.861000000    -5.308000000
C    -4.225000000     1.393000000    -4.530000000
H    -5.083000000     2.060000000    -4.535000000
C    -4.115000000     0.250000000    -3.810000000
O    -5.167000000    -0.175000000    -3.028000000
C    -5.496000000    -1.552000000    -2.742000000
C    -5.835000000    -2.415000000    -3.819000000
H    -5.968000000    -2.028000000    -4.826000000
C    -6.191000000    -3.718000000    -3.510000000
H    -6.473000000    -4.426000000    -4.286000000
C    -6.139000000    -4.170000000    -2.211000000
H    -6.524000000    -5.159000000    -1.976000000
C    -5.624000000    -3.368000000    -1.130000000
C    -5.310000000    -2.050000000    -1.444000000
H    -5.003000000    -1.443000000    -0.596000000
C    -2.938000000     0.424000000    -0.353000000
H    -3.711000000     0.937000000    -0.920000000
C    -1.703000000     0.107000000    -0.892000000
H    -1.487000000     0.440000000    -1.904000000
C    -0.690000000    -0.490000000    -0.149000000
H     0.294000000    -0.819000000    -0.529000000
C    -0.988000000    -0.828000000     1.179000000
H    -0.294000000    -1.445000000     1.744000000
C    -2.193000000    -0.576000000     1.754000000
H    -2.344000000    -0.924000000     2.772000000
C    -3.206000000     0.111000000     0.974000000
C    -4.499000000     0.544000000     1.612000000
O    -4.777000000     0.295000000     2.735000000
O    -5.295000000     1.224000000     0.944000000
O    -2.706000000     1.716000000     3.793000000
H    -3.520000000     1.453000000     3.364000000
H    -2.015000000     1.411000000     3.204000000
O    -4.840000000     0.021000000     6.885000000
H    -4.291000000     0.745000000     6.584000000
H    -4.968000000    -0.522000000     6.108000000
O    -4.203000000     5.382000000     1.665000000
H    -4.249000000     6.181000000     2.191000000
H    -4.867000000     4.807000000     2.045000000
O    -6.002000000     4.474000000    -1.886000000
H    -6.862000000     4.126000000    -1.649000000
H    -5.381000000     3.914000000    -1.420000000
O    -6.768000000     1.620000000    -1.412000000
H    -6.440000000     1.609000000    -0.514000000
H    -6.147000000     1.081000000    -1.902000000
O    -9.276000000     3.636000000     1.155000000
H    -8.581000000     3.026000000     1.404000000
H    -9.203000000     3.705000000     0.203000000
O    -8.656000000    -3.490000000     2.710000000
H    -9.465000000    -3.659000000     2.226000000
H    -8.468000000    -2.566000000     2.545000000
O    -9.588000000    -2.366000000    -1.056000000
H    -9.893000000    -2.451000000    -1.959000000
H    -8.653000000    -2.175000000    -1.136000000
O    -9.950000000    -0.555000000     0.994000000
H   -10.076000000    -1.436000000     0.643000000
H   -10.112000000     0.025000000     0.249000000
O    -5.687000000    -1.554000000     4.348000000
H    -6.226000000    -2.111000000     3.786000000
H    -5.542000000    -0.762000000     3.831000000
O    -3.243000000     4.622000000    -0.922000000
H    -3.699000000     4.991000000    -0.165000000
H    -2.740000000     3.890000000    -0.565000000
O    -8.763000000     3.407000000    -1.653000000
H    -8.323000000     2.567000000    -1.779000000
H    -9.097000000     3.635000000    -2.520000000
O    -3.809000000     2.698000000     6.108000000
H    -4.703000000     2.921000000     5.850000000
H    -3.332000000     2.627000000     5.281000000
O    -6.468000000     2.344000000     5.348000000
H    -7.128000000     2.890000000     5.775000000
H    -6.901000000     1.499000000     5.223000000
O    -6.229000000    -3.738000000     6.509000000
H    -6.192000000    -3.019000000     5.879000000
H    -6.165000000    -4.529000000     5.973000000
O    -6.104000000     3.988000000     3.195000000
H    -5.889000000     3.503000000     3.992000000
H    -6.897000000     3.566000000     2.865000000
O    -7.613000000     1.806000000     2.140000000
H    -6.705000000     1.666000000     1.871000000
H    -7.831000000     1.030000000     2.657000000
O    -8.342000000    -0.102000000     4.870000000
H    -8.917000000    -0.828000000     5.114000000
H    -8.865000000     0.425000000     4.265000000
O    -7.154000000    -0.989000000     1.817000000
H    -6.335000000    -0.537000000     2.019000000
H    -7.745000000    -0.295000000     1.525000000
