215
-1450.05835
C     0.893000000     1.901000000     4.709000000
H     1.793000000     2.459000000     4.466000000
C     0.873000000     0.512000000     4.506000000
C    -0.292000000    -0.216000000     4.905000000
H    -0.336000000    -1.252000000     4.579000000
C     2.029000000    -0.156000000     3.860000000
O     3.251000000     0.628000000     3.921000000
H     1.849000000    -0.307000000     2.786000000
O     2.263000000    -1.522000000     4.339000000
C     2.324000000    -2.396000000     3.311000000
C     1.205000000    -3.242000000     3.051000000
H     0.336000000    -3.218000000     3.704000000
C     1.197000000    -3.997000000     1.852000000
O     0.018000000    -4.704000000     1.560000000
C     2.365000000    -4.042000000     0.997000000
C     2.436000000    -4.840000000    -0.244000000
H     3.436000000    -5.178000000    -0.526000000
C     1.731000000    -4.100000000    -1.347000000
C     2.483000000    -3.313000000    -2.178000000
H     3.514000000    -3.035000000    -1.974000000
H     1.857000000    -5.765000000    -0.202000000
C     3.504000000    -3.326000000     1.363000000
H     4.376000000    -3.344000000     0.714000000
C     3.481000000    -2.531000000     2.493000000
C     4.775000000    -1.691000000     2.782000000
H     5.635000000    -2.180000000     2.320000000
H     4.916000000    -1.487000000     3.846000000
C     4.470000000    -0.350000000     2.115000000
C     4.900000000    -0.212000000     0.762000000
H     5.404000000    -1.015000000     0.232000000
C     3.905000000     0.765000000     2.716000000
C     3.679000000     1.938000000     1.978000000
H     3.034000000     2.724000000     2.363000000
C     4.102000000     2.094000000     0.653000000
O     3.818000000     3.256000000     0.017000000
C     2.738000000     3.165000000    -0.927000000
C     1.861000000     4.389000000    -0.721000000
C     0.996000000     4.782000000    -1.763000000
H     0.988000000     4.105000000    -2.614000000
C     1.868000000     5.135000000     0.424000000
H     2.535000000     4.826000000     1.224000000
O     3.197000000     3.171000000    -2.197000000
H     2.060000000     2.316000000    -0.757000000
C     4.707000000     0.952000000     0.044000000
C     5.199000000     1.134000000    -1.344000000
H     6.036000000     0.454000000    -1.510000000
H     5.676000000     2.116000000    -1.353000000
C     4.067000000     0.912000000    -2.267000000
C     3.969000000    -0.338000000    -2.876000000
H     4.696000000    -1.142000000    -2.789000000
C     3.199000000     1.891000000    -2.725000000
C     2.198000000     1.582000000    -3.692000000
H     1.571000000     2.390000000    -4.061000000
C     1.941000000     0.332000000    -4.042000000
O     0.839000000    -0.074000000    -4.727000000
C    -0.269000000    -0.831000000    -4.152000000
C    -1.602000000    -0.242000000    -4.526000000
C    -1.819000000     1.062000000    -5.009000000
H    -0.937000000     1.667000000    -5.204000000
C    -2.767000000    -0.900000000    -4.101000000
H    -2.632000000    -1.779000000    -3.476000000
O    -0.111000000    -2.194000000    -4.520000000
H    -0.208000000    -0.758000000    -3.056000000
C     2.905000000    -0.614000000    -3.759000000
C     2.776000000    -2.011000000    -4.249000000
H     3.684000000    -2.544000000    -4.538000000
H     2.303000000    -1.860000000    -5.221000000
C     1.980000000    -2.828000000    -3.329000000
C     0.617000000    -2.934000000    -3.557000000
C    -0.249000000    -3.651000000    -2.634000000
H    -1.315000000    -3.714000000    -2.833000000
C     0.343000000    -4.199000000    -1.573000000
O    -0.514000000    -4.919000000    -0.714000000
C    -0.842000000    -4.161000000     0.531000000
H    -0.694000000    -3.094000000     0.303000000
C    -2.294000000    -4.437000000     0.867000000
C    -2.759000000    -4.418000000     2.150000000
H    -2.067000000    -4.087000000     2.920000000
C    -3.189000000    -4.572000000    -0.213000000
H    -2.778000000    -4.575000000    -1.219000000
C    -4.552000000    -4.644000000     0.078000000
O    -5.452000000    -4.971000000    -0.953000000
C    -5.017000000    -4.626000000     1.436000000
H    -6.079000000    -4.788000000     1.604000000
C    -4.092000000    -4.476000000     2.466000000
O    -4.525000000    -4.169000000     3.709000000
C    -3.794000000    -3.520000000     4.709000000
C    -3.449000000    -2.138000000     4.605000000
H    -3.965000000    -1.595000000     3.817000000
C    -3.181000000    -4.338000000     5.654000000
H    -3.366000000    -5.402000000     5.526000000
C    -2.486000000    -3.753000000     6.715000000
H    -2.121000000    -4.418000000     7.493000000
C    -2.245000000    -2.394000000     6.677000000
H    -1.714000000    -1.957000000     7.519000000
C    -2.706000000    -1.572000000     5.651000000
O    -2.600000000    -0.266000000     5.818000000
C    -1.405000000     0.408000000     5.522000000
C    -1.302000000     1.802000000     5.757000000
H    -2.132000000     2.329000000     6.220000000
C    -0.136000000     2.530000000     5.388000000
O     0.028000000     3.871000000     5.714000000
C     0.777000000     4.771000000     5.018000000
C     0.540000000     5.118000000     3.650000000
H    -0.196000000     4.587000000     3.052000000
C     1.708000000     5.548000000     5.701000000
H     2.022000000     5.242000000     6.695000000
C     2.339000000     6.675000000     5.113000000
H     3.116000000     7.217000000     5.646000000
C     1.882000000     7.098000000     3.874000000
H     2.318000000     7.958000000     3.371000000
C     1.123000000     6.271000000     3.125000000
O     0.914000000     6.743000000     1.834000000
C     0.932000000     6.138000000     0.603000000
C    -0.034000000     6.413000000    -0.350000000
H    -0.837000000     7.125000000    -0.179000000
C     0.077000000     5.765000000    -1.588000000
O    -0.861000000     5.973000000    -2.539000000
C    -1.007000000     5.348000000    -3.769000000
C    -1.747000000     4.244000000    -3.974000000
H    -2.295000000     3.828000000    -3.132000000
C    -0.355000000     5.920000000    -4.863000000
H     0.254000000     6.792000000    -4.639000000
C    -0.513000000     5.446000000    -6.150000000
H    -0.060000000     6.090000000    -6.899000000
C    -1.436000000     4.466000000    -6.374000000
H    -1.747000000     4.215000000    -7.384000000
C    -2.100000000     3.861000000    -5.272000000
O    -3.195000000     2.941000000    -5.373000000
C    -3.094000000     1.638000000    -5.129000000
C    -4.161000000     1.026000000    -4.564000000
H    -5.110000000     1.532000000    -4.401000000
C    -3.980000000    -0.212000000    -3.994000000
O    -4.980000000    -0.752000000    -3.274000000
C    -5.357000000    -2.118000000    -3.318000000
C    -5.686000000    -2.659000000    -4.543000000
H    -5.661000000    -1.963000000    -5.377000000
C    -6.086000000    -4.042000000    -4.568000000
H    -6.378000000    -4.588000000    -5.462000000
C    -6.063000000    -4.713000000    -3.345000000
H    -6.327000000    -5.766000000    -3.290000000
C    -5.480000000    -4.245000000    -2.185000000
C    -5.262000000    -2.854000000    -2.164000000
H    -4.829000000    -2.338000000    -1.310000000
C    -1.584000000     1.656000000    -0.055000000
H    -2.290000000     2.442000000    -0.310000000
C    -0.427000000     1.499000000    -0.816000000
H    -0.269000000     2.145000000    -1.675000000
C     0.427000000     0.507000000    -0.434000000
H     1.319000000     0.318000000    -1.094000000
C     0.082000000    -0.410000000     0.571000000
H     0.808000000    -1.185000000     0.805000000
C    -1.108000000    -0.263000000     1.310000000
H    -1.389000000    -1.072000000     1.980000000
C    -1.988000000     0.758000000     0.971000000
C    -3.335000000     0.923000000     1.602000000
O    -3.763000000     0.086000000     2.392000000
O    -4.089000000     1.813000000     1.296000000
O    -8.146000000     1.158000000    -2.025000000
H    -8.389000000     1.479000000    -2.893000000
H    -8.382000000     1.871000000    -1.431000000
O    -4.696000000     4.422000000     2.016000000
H    -4.772000000     3.555000000     1.616000000
H    -4.038000000     4.873000000     1.487000000
O    -6.354000000     0.886000000     7.024000000
H    -6.302000000     0.925000000     6.069000000
H    -6.329000000     1.801000000     7.303000000
O    -6.052000000     6.868000000     2.290000000
H    -5.292000000     7.319000000     2.657000000
H    -5.796000000     5.946000000     2.267000000
O    -8.941000000     0.487000000     2.555000000
H    -8.251000000     1.150000000     2.585000000
H    -8.745000000    -0.027000000     1.771000000
O    -3.256000000     5.625000000    -0.130000000
H    -3.693000000     5.553000000    -0.979000000
H    -3.328000000     6.552000000     0.098000000
O    -4.533000000     1.901000000    -1.404000000
H    -4.200000000     1.804000000    -0.512000000
H    -4.428000000     1.033000000    -1.794000000
O    -7.044000000     3.832000000     4.292000000
H    -6.264000000     3.633000000     4.811000000
H    -7.037000000     3.183000000     3.589000000
O    -8.906000000     2.653000000     0.304000000
H    -9.277000000     3.134000000     1.043000000
H    -8.084000000     2.295000000     0.640000000
O    -7.127000000    -0.763000000    -0.006000000
H    -7.969000000    -1.219000000     0.017000000
H    -7.197000000    -0.168000000    -0.753000000
O    -5.059000000     1.068000000     4.707000000
H    -4.546000000     0.799000000     3.945000000
H    -4.599000000     0.685000000     5.453000000
O    -4.043000000     3.541000000     4.638000000
H    -4.108000000     2.587000000     4.597000000
H    -4.103000000     3.825000000     3.726000000
O    -7.120000000    -2.308000000     4.815000000
H    -7.720000000    -3.014000000     4.572000000
H    -6.737000000    -2.023000000     3.986000000
O    -6.563000000     1.976000000     2.343000000
H    -5.780000000     2.061000000     1.799000000
H    -6.259000000     1.531000000     3.134000000
O    -6.407000000     3.109000000    -2.978000000
H    -5.753000000     2.892000000    -2.313000000
H    -7.098000000     2.458000000    -2.855000000
O    -4.598000000     5.724000000    -2.920000000
H    -4.349000000     5.510000000    -3.819000000
H    -5.555000000     5.720000000    -2.928000000
O    -9.262000000    -0.772000000     5.029000000
H    -8.419000000    -1.225000000     5.004000000
H    -9.210000000    -0.130000000     4.320000000
O    -6.237000000    -1.273000000     2.627000000
H    -5.320000000    -0.998000000     2.629000000
H    -6.609000000    -0.864000000     1.845000000
O    -2.343000000     5.775000000     5.131000000
H    -1.937000000     5.981000000     5.973000000
H    -2.757000000     4.923000000     5.266000000
