215
-1468.72331
C     0.670000000     1.694000000     5.129000000
H     0.953000000     2.601000000     4.601000000
C     1.363000000     0.477000000     5.014000000
C     0.777000000    -0.639000000     5.711000000
H     1.088000000    -1.661000000     5.510000000
C     2.414000000     0.343000000     3.905000000
O     3.146000000     1.587000000     3.714000000
H     1.841000000     0.124000000     2.992000000
O     3.222000000    -0.865000000     4.114000000
C     3.576000000    -1.512000000     2.981000000
C     2.822000000    -2.581000000     2.604000000
H     2.035000000    -2.891000000     3.287000000
C     3.029000000    -3.235000000     1.406000000
O     2.099000000    -4.167000000     1.086000000
C     3.933000000    -2.783000000     0.467000000
C     4.077000000    -3.572000000    -0.815000000
H     5.089000000    -3.463000000    -1.211000000
C     3.122000000    -3.020000000    -1.875000000
C     3.560000000    -2.011000000    -2.796000000
H     4.449000000    -1.444000000    -2.530000000
H     3.920000000    -4.643000000    -0.667000000
C     4.622000000    -1.627000000     0.749000000
H     5.342000000    -1.258000000     0.023000000
C     4.462000000    -1.005000000     1.968000000
C     5.211000000     0.266000000     2.196000000
H     6.185000000     0.281000000     1.702000000
H     5.517000000     0.426000000     3.232000000
C     4.428000000     1.479000000     1.696000000
C     4.601000000     1.980000000     0.396000000
H     5.553000000     1.664000000    -0.023000000
C     3.381000000     1.999000000     2.455000000
C     2.487000000     2.974000000     2.027000000
H     1.633000000     3.362000000     2.577000000
C     2.627000000     3.393000000     0.699000000
O     1.665000000     4.267000000     0.238000000
C     0.729000000     3.831000000    -0.778000000
C    -0.607000000     4.472000000    -0.541000000
C    -1.490000000     4.738000000    -1.549000000
H    -1.208000000     4.546000000    -2.582000000
C    -1.057000000     4.658000000     0.737000000
H    -0.425000000     4.322000000     1.555000000
O     1.277000000     4.246000000    -2.018000000
H     0.617000000     2.737000000    -0.820000000
C     3.693000000     2.896000000    -0.150000000
C     4.055000000     3.454000000    -1.606000000
H     5.111000000     3.228000000    -1.772000000
H     3.990000000     4.544000000    -1.581000000
C     3.095000000     2.858000000    -2.600000000
C     3.491000000     1.728000000    -3.266000000
H     4.550000000     1.506000000    -3.162000000
C     1.774000000     3.245000000    -2.774000000
C     0.899000000     2.525000000    -3.618000000
H    -0.140000000     2.843000000    -3.627000000
C     1.334000000     1.324000000    -4.149000000
O     0.410000000     0.698000000    -4.893000000
C    -0.197000000    -0.499000000    -4.403000000
C    -1.663000000    -0.679000000    -4.782000000
C    -2.564000000     0.438000000    -4.681000000
H    -2.145000000     1.399000000    -4.394000000
C    -2.193000000    -1.936000000    -5.041000000
H    -1.590000000    -2.836000000    -5.127000000
O     0.626000000    -1.643000000    -4.819000000
H    -0.323000000    -0.508000000    -3.310000000
C     2.651000000     0.938000000    -3.984000000
C     3.165000000    -0.350000000    -4.570000000
H     4.241000000    -0.307000000    -4.755000000
H     2.736000000    -0.502000000    -5.563000000
C     2.737000000    -1.548000000    -3.766000000
C     1.419000000    -2.087000000    -3.910000000
C     1.026000000    -3.159000000    -3.097000000
H     0.009000000    -3.536000000    -3.166000000
C     1.852000000    -3.568000000    -2.017000000
O     1.295000000    -4.430000000    -1.120000000
C     1.078000000    -3.772000000     0.158000000
H     1.196000000    -2.694000000    -0.026000000
C    -0.275000000    -4.084000000     0.653000000
C    -0.581000000    -4.123000000     1.996000000
H     0.231000000    -4.112000000     2.718000000
C    -1.340000000    -4.297000000    -0.273000000
H    -1.151000000    -4.191000000    -1.338000000
C    -2.643000000    -4.439000000     0.223000000
O    -3.683000000    -4.777000000    -0.597000000
C    -2.938000000    -4.448000000     1.581000000
H    -3.972000000    -4.576000000     1.889000000
C    -1.911000000    -4.272000000     2.454000000
O    -2.211000000    -4.295000000     3.787000000
C    -1.296000000    -4.187000000     4.805000000
C    -1.442000000    -2.971000000     5.526000000
H    -2.106000000    -2.233000000     5.084000000
C    -0.602000000    -5.235000000     5.355000000
H    -0.561000000    -6.163000000     4.791000000
C     0.100000000    -5.010000000     6.576000000
H     0.732000000    -5.749000000     7.061000000
C     0.022000000    -3.762000000     7.246000000
H     0.436000000    -3.743000000     8.251000000
C    -0.776000000    -2.768000000     6.704000000
O    -0.896000000    -1.491000000     7.218000000
C    -0.344000000    -0.427000000     6.514000000
C    -0.922000000     0.801000000     6.721000000
H    -1.799000000     0.957000000     7.345000000
C    -0.453000000     1.881000000     5.961000000
O    -1.225000000     2.981000000     6.140000000
C    -1.186000000     4.117000000     5.364000000
C    -2.102000000     4.336000000     4.269000000
H    -2.958000000     3.681000000     4.126000000
C    -0.110000000     4.989000000     5.505000000
H     0.701000000     4.913000000     6.225000000
C     0.020000000     6.093000000     4.710000000
H     0.807000000     6.840000000     4.769000000
C    -0.864000000     6.338000000     3.637000000
H    -0.716000000     7.214000000     3.010000000
C    -1.837000000     5.348000000     3.359000000
O    -2.673000000     5.467000000     2.300000000
C    -2.217000000     5.338000000     1.027000000
C    -3.070000000     5.740000000    -0.019000000
H    -4.019000000     6.214000000     0.218000000
C    -2.777000000     5.194000000    -1.241000000
O    -3.656000000     5.328000000    -2.187000000
C    -3.830000000     4.627000000    -3.359000000
C    -4.247000000     3.285000000    -3.311000000
H    -4.364000000     2.796000000    -2.348000000
C    -3.751000000     5.269000000    -4.589000000
H    -3.476000000     6.309000000    -4.745000000
C    -3.957000000     4.524000000    -5.727000000
H    -3.849000000     5.058000000    -6.668000000
C    -4.371000000     3.205000000    -5.738000000
H    -4.500000000     2.552000000    -6.597000000
C    -4.488000000     2.569000000    -4.469000000
O    -4.803000000     1.200000000    -4.437000000
C    -3.909000000     0.196000000    -4.780000000
C    -4.362000000    -1.093000000    -4.907000000
H    -5.429000000    -1.268000000    -5.021000000
C    -3.540000000    -2.152000000    -5.028000000
O    -4.124000000    -3.423000000    -5.124000000
C    -3.801000000    -4.420000000    -4.214000000
C    -3.289000000    -5.658000000    -4.655000000
H    -3.137000000    -5.783000000    -5.724000000
C    -2.885000000    -6.562000000    -3.694000000
H    -2.399000000    -7.469000000    -4.047000000
C    -3.046000000    -6.308000000    -2.337000000
H    -2.837000000    -7.121000000    -1.646000000
C    -3.505000000    -5.066000000    -1.883000000
C    -3.875000000    -4.141000000    -2.860000000
H    -4.329000000    -3.217000000    -2.514000000
C    -3.140000000     0.292000000    -0.743000000
H    -3.615000000     0.683000000    -1.640000000
C    -1.865000000     0.745000000    -0.387000000
H    -1.381000000     1.415000000    -1.092000000
C    -1.243000000     0.334000000     0.798000000
H    -0.295000000     0.727000000     1.083000000
C    -1.888000000    -0.558000000     1.645000000
H    -1.383000000    -0.907000000     2.542000000
C    -3.232000000    -0.925000000     1.338000000
H    -3.743000000    -1.599000000     2.021000000
C    -3.890000000    -0.503000000     0.148000000
C    -5.291000000    -1.064000000    -0.184000000
O    -5.873000000    -1.790000000     0.608000000
O    -5.946000000    -0.632000000    -1.094000000
O    -5.979000000     3.764000000     3.304000000
H    -6.833000000     4.054000000     2.984000000
H    -5.600000000     3.279000000     2.571000000
O    -7.088000000    -5.872000000    -1.106000000
H    -7.260000000    -5.225000000    -1.789000000
H    -7.297000000    -5.419000000    -0.289000000
O    -6.037000000    -1.679000000     3.381000000
H    -5.233000000    -2.181000000     3.514000000
H    -6.185000000    -1.710000000     2.436000000
O    -7.613000000    -3.137000000    -5.008000000
H    -7.483000000    -3.087000000    -5.955000000
H    -8.226000000    -2.429000000    -4.812000000
O    -9.449000000    -2.426000000    -0.551000000
H    -9.720000000    -3.157000000     0.004000000
H    -8.670000000    -2.747000000    -1.005000000
O    -8.729000000     2.202000000     0.051000000
H    -8.683000000     1.246000000     0.024000000
H    -9.628000000     2.406000000    -0.205000000
O   -11.711000000    -1.442000000    -1.645000000
H   -10.841000000    -1.669000000    -1.318000000
H   -12.101000000    -0.917000000    -0.945000000
O    -7.275000000     1.232000000     4.871000000
H    -6.976000000     0.847000000     5.695000000
H    -6.471000000     1.487000000     4.419000000
O    -7.365000000    -4.284000000     4.077000000
H    -7.198000000    -3.588000000     4.713000000
H    -8.284000000    -4.515000000     4.210000000
O    -5.849000000     2.196000000    -0.057000000
H    -6.727000000     2.553000000     0.075000000
H    -5.988000000     1.402000000    -0.574000000
O    -8.178000000    -0.477000000     0.763000000
H    -8.771000000    -1.049000000     0.277000000
H    -7.303000000    -0.748000000     0.486000000
O    -8.264000000    -0.538000000    -5.250000000
H    -7.898000000     0.160000000    -5.793000000
H    -8.044000000    -0.285000000    -4.353000000
O    -7.411000000    -3.297000000    -2.139000000
H    -7.311000000    -3.305000000    -3.091000000
H    -6.687000000    -2.755000000    -1.827000000
O    -7.202000000     1.100000000    -2.986000000
H    -6.366000000     1.172000000    -3.446000000
H    -6.998000000     0.595000000    -2.198000000
O    -7.527000000    -4.060000000     1.243000000
H    -6.793000000    -3.449000000     1.317000000
H    -7.612000000    -4.439000000     2.118000000
O    -3.908000000     2.206000000     1.752000000
H    -3.304000000     1.930000000     1.063000000
H    -4.750000000     2.302000000     1.307000000
O    -9.278000000     0.161000000     3.162000000
H    -8.618000000     0.198000000     3.854000000
H    -8.787000000    -0.075000000     2.375000000
O    -8.885000000     3.032000000    -3.245000000
H    -8.921000000     2.786000000    -4.169000000
H    -8.315000000     2.375000000    -2.844000000
O    -4.279000000     0.834000000     4.096000000
H    -3.892000000     1.392000000     3.421000000
H    -4.774000000     0.177000000     3.608000000
