215
-1450.46013
C     1.095000000     2.358000000     5.051000000
H     1.694000000     3.201000000     4.716000000
C     1.441000000     1.008000000     4.707000000
C     0.701000000    -0.046000000     5.203000000
H     0.967000000    -1.023000000     4.807000000
C     2.430000000     0.688000000     3.543000000
O     3.172000000     1.840000000     3.206000000
H     1.853000000     0.379000000     2.659000000
O     3.375000000    -0.350000000     3.890000000
C     3.608000000    -1.242000000     2.879000000
C     2.831000000    -2.416000000     2.689000000
H     2.095000000    -2.639000000     3.458000000
C     2.909000000    -3.252000000     1.590000000
O     2.022000000    -4.290000000     1.499000000
C     3.919000000    -2.963000000     0.589000000
C     4.095000000    -3.838000000    -0.651000000
H     5.071000000    -3.730000000    -1.129000000
C     3.056000000    -3.466000000    -1.731000000
C     3.325000000    -2.498000000    -2.682000000
H     4.271000000    -1.966000000    -2.738000000
H     4.099000000    -4.893000000    -0.367000000
C     4.682000000    -1.814000000     0.725000000
H     5.439000000    -1.471000000     0.024000000
C     4.492000000    -0.933000000     1.848000000
C     5.233000000     0.432000000     1.788000000
H     6.185000000     0.236000000     1.290000000
H     5.455000000     0.658000000     2.833000000
C     4.463000000     1.541000000     1.144000000
C     4.684000000     1.801000000    -0.231000000
H     5.448000000     1.356000000    -0.864000000
C     3.420000000     2.128000000     1.859000000
C     2.762000000     3.207000000     1.309000000
H     2.158000000     3.853000000     1.940000000
C     2.964000000     3.531000000    -0.069000000
O     2.238000000     4.521000000    -0.657000000
C     1.112000000     4.178000000    -1.461000000
C    -0.197000000     4.774000000    -1.030000000
C    -1.121000000     5.272000000    -1.956000000
H    -0.925000000     5.275000000    -3.025000000
C    -0.522000000     4.867000000     0.342000000
H     0.153000000     4.510000000     1.115000000
O     1.444000000     4.154000000    -2.879000000
H     0.930000000     3.127000000    -1.190000000
C     3.926000000     2.815000000    -0.853000000
C     4.176000000     3.117000000    -2.338000000
H     5.190000000     2.803000000    -2.593000000
H     4.055000000     4.189000000    -2.512000000
C     3.066000000     2.353000000    -3.115000000
C     3.272000000     1.050000000    -3.449000000
H     4.221000000     0.574000000    -3.218000000
C     1.832000000     2.915000000    -3.320000000
C     0.805000000     2.169000000    -3.869000000
H    -0.147000000     2.625000000    -4.126000000
C     1.028000000     0.805000000    -4.303000000
O     0.023000000     0.097000000    -4.909000000
C    -0.572000000    -0.953000000    -4.032000000
C    -2.046000000    -0.835000000    -4.004000000
C    -2.785000000     0.358000000    -4.069000000
H    -2.279000000     1.308000000    -3.920000000
C    -2.845000000    -2.017000000    -3.863000000
H    -2.364000000    -2.971000000    -3.664000000
O    -0.015000000    -2.320000000    -4.224000000
H    -0.336000000    -0.671000000    -2.996000000
C     2.284000000     0.276000000    -4.072000000
C     2.633000000    -1.085000000    -4.667000000
H     3.618000000    -1.123000000    -5.136000000
H     2.070000000    -1.279000000    -5.582000000
C     2.372000000    -2.189000000    -3.679000000
C     1.140000000    -2.862000000    -3.678000000
C     0.913000000    -3.951000000    -2.839000000
H    -0.094000000    -4.359000000    -2.813000000
C     1.867000000    -4.177000000    -1.800000000
O     1.500000000    -4.927000000    -0.715000000
C     1.048000000    -4.215000000     0.489000000
H     0.881000000    -3.166000000     0.203000000
C    -0.341000000    -4.698000000     1.009000000
C    -0.746000000    -4.282000000     2.308000000
H    -0.018000000    -3.785000000     2.944000000
C    -1.276000000    -5.326000000     0.214000000
H    -1.051000000    -5.545000000    -0.827000000
C    -2.524000000    -5.685000000     0.622000000
O    -3.442000000    -6.315000000    -0.175000000
C    -2.918000000    -5.364000000     1.938000000
H    -3.825000000    -5.795000000     2.354000000
C    -2.061000000    -4.601000000     2.741000000
O    -2.402000000    -4.528000000     4.099000000
C    -1.532000000    -4.033000000     5.046000000
C    -1.627000000    -2.704000000     5.421000000
H    -2.497000000    -2.160000000     5.061000000
C    -0.771000000    -4.923000000     5.771000000
H    -0.767000000    -5.935000000     5.374000000
C    -0.024000000    -4.403000000     6.857000000
H     0.442000000    -5.111000000     7.538000000
C    -0.030000000    -3.023000000     7.082000000
H     0.634000000    -2.655000000     7.860000000
C    -0.808000000    -2.161000000     6.363000000
O    -0.924000000    -0.848000000     6.824000000
C    -0.249000000     0.214000000     6.229000000
C    -0.461000000     1.543000000     6.665000000
H    -1.154000000     1.727000000     7.481000000
C     0.134000000     2.638000000     5.982000000
O    -0.214000000     3.921000000     6.290000000
C    -0.410000000     4.793000000     5.242000000
C    -1.240000000     4.494000000     4.158000000
H    -1.772000000     3.552000000     4.049000000
C     0.124000000     6.094000000     5.376000000
H     0.678000000     6.358000000     6.274000000
C    -0.035000000     7.087000000     4.451000000
H     0.426000000     8.064000000     4.570000000
C    -0.754000000     6.768000000     3.322000000
H    -0.917000000     7.535000000     2.569000000
C    -1.326000000     5.491000000     3.153000000
O    -2.161000000     5.279000000     2.096000000
C    -1.813000000     5.228000000     0.759000000
C    -2.767000000     5.597000000    -0.188000000
H    -3.735000000     5.944000000     0.163000000
C    -2.421000000     5.582000000    -1.547000000
O    -3.436000000     5.901000000    -2.512000000
C    -3.684000000     4.992000000    -3.548000000
C    -4.066000000     3.679000000    -3.270000000
H    -4.357000000     3.482000000    -2.241000000
C    -3.433000000     5.464000000    -4.860000000
H    -3.008000000     6.445000000    -5.053000000
C    -3.613000000     4.560000000    -5.900000000
H    -3.472000000     4.932000000    -6.912000000
C    -4.123000000     3.260000000    -5.640000000
H    -4.330000000     2.566000000    -6.450000000
C    -4.359000000     2.767000000    -4.364000000
O    -4.875000000     1.548000000    -4.058000000
C    -4.185000000     0.389000000    -3.977000000
C    -4.909000000    -0.778000000    -3.889000000
H    -5.981000000    -0.653000000    -3.765000000
C    -4.247000000    -1.979000000    -3.722000000
O    -4.937000000    -3.194000000    -3.527000000
C    -4.344000000    -4.391000000    -3.199000000
C    -4.028000000    -5.277000000    -4.222000000
H    -4.158000000    -5.021000000    -5.271000000
C    -3.478000000    -6.551000000    -3.858000000
H    -3.211000000    -7.316000000    -4.581000000
C    -3.355000000    -6.859000000    -2.490000000
H    -2.889000000    -7.803000000    -2.219000000
C    -3.581000000    -5.928000000    -1.504000000
C    -4.070000000    -4.706000000    -1.838000000
H    -4.297000000    -3.960000000    -1.081000000
C    -3.078000000     0.900000000    -0.606000000
H    -3.737000000     1.514000000    -1.214000000
C    -1.758000000     1.254000000    -0.615000000
H    -1.297000000     2.143000000    -1.037000000
C    -0.894000000     0.433000000     0.031000000
H     0.143000000     0.702000000     0.030000000
C    -1.291000000    -0.720000000     0.693000000
H    -0.550000000    -1.320000000     1.216000000
C    -2.590000000    -1.106000000     0.577000000
H    -2.972000000    -2.030000000     1.004000000
C    -3.533000000    -0.318000000    -0.158000000
C    -4.940000000    -0.818000000    -0.396000000
O    -5.239000000    -1.896000000     0.128000000
O    -5.849000000    -0.041000000    -0.763000000
O    -6.486000000    -5.965000000     3.566000000
H    -6.063000000    -5.492000000     2.850000000
H    -5.940000000    -6.741000000     3.695000000
O    -5.427000000    -1.331000000     2.690000000
H    -4.595000000    -0.862000000     2.763000000
H    -5.473000000    -1.595000000     1.771000000
O    -4.646000000     2.398000000     2.399000000
H    -4.151000000     2.807000000     3.108000000
H    -4.692000000     3.070000000     1.719000000
O    -8.324000000    -0.141000000    -3.130000000
H    -7.889000000     0.669000000    -2.861000000
H    -8.269000000    -0.135000000    -4.086000000
O    -6.608000000    -1.490000000     4.997000000
H    -6.044000000    -1.357000000     4.235000000
H    -7.133000000    -2.259000000     4.776000000
O    -8.863000000    -0.759000000     2.593000000
H    -8.238000000    -0.158000000     2.187000000
H    -8.395000000    -1.592000000     2.647000000
O    -7.782000000    -3.368000000     3.308000000
H    -7.244000000    -3.648000000     2.567000000
H    -8.340000000    -4.122000000     3.498000000
O    -7.188000000     0.816000000     1.234000000
H    -6.361000000     1.216000000     1.504000000
H    -6.974000000     0.344000000     0.429000000
O    -7.521000000    -2.570000000    -1.250000000
H    -6.686000000    -2.339000000    -0.842000000
H    -7.759000000    -1.797000000    -1.761000000
O    -7.743000000    -5.051000000    -2.278000000
H    -8.513000000    -4.849000000    -2.810000000
H    -7.509000000    -4.218000000    -1.869000000
O    -8.696000000     2.289000000     3.534000000
H    -8.384000000     1.845000000     2.745000000
H    -9.478000000     2.763000000     3.248000000
O    -6.996000000     2.054000000    -1.909000000
H    -6.470000000     2.348000000    -2.653000000
H    -6.616000000     1.209000000    -1.666000000
O   -10.471000000     0.034000000    -1.414000000
H   -11.396000000     0.016000000    -1.659000000
H   -10.005000000    -0.201000000    -2.216000000
O    -5.796000000    -4.279000000     1.431000000
H    -5.649000000    -3.372000000     1.161000000
H    -5.475000000    -4.802000000     0.697000000
O    -2.914000000     0.317000000     3.010000000
H    -2.080000000     0.246000000     2.545000000
H    -3.397000000     0.992000000     2.533000000
O   -11.297000000    -0.073000000     1.403000000
H   -11.055000000     0.364000000     0.586000000
H   -10.525000000    -0.588000000     1.637000000
O    -9.685000000     2.708000000    -0.892000000
H    -8.800000000     2.688000000    -1.257000000
H    -9.919000000     1.787000000    -0.779000000
O    -3.988000000    -0.113000000     5.726000000
H    -4.837000000    -0.520000000     5.552000000
H    -3.650000000     0.115000000     4.860000000
O    -6.905000000     5.406000000    -1.356000000
H    -6.699000000     4.487000000    -1.533000000
H    -7.209000000     5.413000000    -0.449000000
