215
-1474.02520
C     3.415000000     0.315000000    -3.135000000
H     2.588000000    -0.277000000    -3.519000000
C     4.092000000    -0.003000000    -2.023000000
C     4.979000000     0.908000000    -1.475000000
H     5.388000000     0.654000000    -0.501000000
C     3.691000000    -1.211000000    -1.158000000
O     3.651000000    -2.337000000    -1.995000000
H     2.696000000    -1.106000000    -0.701000000
O     4.602000000    -1.486000000    -0.031000000
C     4.052000000    -1.883000000     1.182000000
C     4.061000000    -0.913000000     2.177000000
H     4.523000000     0.053000000     1.991000000
C     3.245000000    -1.103000000     3.213000000
O     3.101000000    -0.094000000     4.105000000
C     2.601000000    -2.332000000     3.393000000
C     1.777000000    -2.631000000     4.631000000
H     1.688000000    -3.708000000     4.787000000
C     0.321000000    -2.127000000     4.536000000
C    -0.676000000    -3.075000000     4.155000000
H    -0.349000000    -4.103000000     4.025000000
H     2.268000000    -2.166000000     5.489000000
C     2.719000000    -3.314000000     2.433000000
H     2.173000000    -4.246000000     2.560000000
C     3.412000000    -3.086000000     1.306000000
C     3.466000000    -4.116000000     0.219000000
H     3.469000000    -5.049000000     0.786000000
H     4.426000000    -4.056000000    -0.298000000
C     2.400000000    -4.026000000    -0.872000000
C     1.241000000    -4.735000000    -0.702000000
H     0.946000000    -5.316000000     0.168000000
C     2.548000000    -3.125000000    -1.945000000
C     1.575000000    -3.053000000    -2.907000000
H     1.636000000    -2.414000000    -3.784000000
C     0.393000000    -3.773000000    -2.743000000
O    -0.682000000    -3.515000000    -3.640000000
C    -1.756000000    -2.675000000    -3.153000000
C    -2.247000000    -1.622000000    -4.177000000
C    -3.500000000    -0.952000000    -4.143000000
H    -4.220000000    -1.216000000    -3.372000000
C    -1.359000000    -1.225000000    -5.145000000
H    -0.369000000    -1.666000000    -5.237000000
O    -2.840000000    -3.422000000    -2.566000000
H    -1.300000000    -2.011000000    -2.404000000
C     0.175000000    -4.638000000    -1.650000000
C    -1.143000000    -5.342000000    -1.349000000
H    -0.831000000    -6.248000000    -0.825000000
H    -1.611000000    -5.718000000    -2.261000000
C    -2.049000000    -4.408000000    -0.518000000
C    -2.053000000    -4.431000000     0.870000000
H    -1.486000000    -5.122000000     1.489000000
C    -2.901000000    -3.496000000    -1.180000000
C    -3.700000000    -2.601000000    -0.503000000
H    -4.307000000    -1.885000000    -1.051000000
C    -3.623000000    -2.613000000     0.880000000
O    -4.296000000    -1.596000000     1.488000000
C    -3.538000000    -0.534000000     1.896000000
C    -4.067000000     0.778000000     1.491000000
C    -5.090000000     0.919000000     0.569000000
H    -5.405000000     0.000000000     0.082000000
C    -3.479000000     1.934000000     2.071000000
H    -2.712000000     1.928000000     2.842000000
O    -3.333000000    -0.680000000     3.317000000
H    -2.587000000    -0.650000000     1.356000000
C    -2.887000000    -3.511000000     1.570000000
C    -2.884000000    -3.600000000     3.105000000
H    -2.762000000    -4.625000000     3.462000000
H    -3.885000000    -3.347000000     3.461000000
C    -1.908000000    -2.615000000     3.703000000
C    -2.140000000    -1.211000000     3.746000000
C    -1.264000000    -0.381000000     4.341000000
H    -1.585000000     0.650000000     4.467000000
C    -0.010000000    -0.790000000     4.694000000
O     1.002000000     0.206000000     4.969000000
C     1.893000000     0.622000000     3.851000000
H     1.407000000     0.474000000     2.875000000
C     2.091000000     2.135000000     3.923000000
C     3.244000000     2.669000000     3.264000000
H     3.951000000     2.016000000     2.760000000
C     1.180000000     2.975000000     4.522000000
H     0.238000000     2.562000000     4.872000000
C     1.378000000     4.336000000     4.543000000
O     0.459000000     5.152000000     5.072000000
C     2.548000000     4.855000000     3.992000000
H     2.638000000     5.938000000     3.967000000
C     3.480000000     4.048000000     3.363000000
O     4.686000000     4.502000000     2.836000000
C     5.615000000     3.783000000     2.070000000
C     5.404000000     3.738000000     0.680000000
H     4.572000000     4.294000000     0.254000000
C     6.747000000     3.159000000     2.599000000
H     6.880000000     3.234000000     3.676000000
C     7.602000000     2.366000000     1.804000000
H     8.507000000     1.888000000     2.171000000
C     7.356000000     2.383000000     0.436000000
H     8.013000000     1.816000000    -0.219000000
C     6.292000000     3.037000000    -0.101000000
O     6.107000000     2.988000000    -1.512000000
C     5.293000000     2.124000000    -2.132000000
C     4.755000000     2.324000000    -3.323000000
H     4.902000000     3.259000000    -3.857000000
C     3.800000000     1.499000000    -3.827000000
O     3.174000000     1.853000000    -4.988000000
C     2.588000000     1.000000000    -5.896000000
C     1.209000000     1.059000000    -6.119000000
H     0.573000000     1.737000000    -5.556000000
C     3.353000000     0.030000000    -6.558000000
H     4.405000000    -0.125000000    -6.332000000
C     2.742000000    -0.836000000    -7.488000000
H     3.307000000    -1.595000000    -8.024000000
C     1.346000000    -0.795000000    -7.628000000
H     0.866000000    -1.525000000    -8.275000000
C     0.574000000     0.151000000    -6.962000000
O    -0.797000000     0.110000000    -7.078000000
C    -1.683000000    -0.196000000    -6.065000000
C    -2.852000000     0.492000000    -5.920000000
H    -3.064000000     1.287000000    -6.630000000
C    -3.784000000     0.143000000    -4.963000000
O    -4.978000000     0.878000000    -4.854000000
C    -5.888000000     0.721000000    -3.833000000
C    -5.775000000     1.501000000    -2.706000000
H    -4.909000000     2.136000000    -2.538000000
C    -7.002000000    -0.096000000    -3.944000000
H    -7.115000000    -0.676000000    -4.856000000
C    -7.972000000    -0.187000000    -2.969000000
H    -8.837000000    -0.798000000    -3.213000000
C    -7.810000000     0.508000000    -1.772000000
H    -8.562000000     0.469000000    -0.988000000
C    -6.797000000     1.500000000    -1.731000000
O    -6.728000000     2.285000000    -0.578000000
C    -5.722000000     2.148000000     0.334000000
C    -5.129000000     3.289000000     0.846000000
H    -5.450000000     4.301000000     0.612000000
C    -3.990000000     3.219000000     1.685000000
O    -3.343000000     4.377000000     2.069000000
C    -2.877000000     4.711000000     3.339000000
C    -3.670000000     4.594000000     4.453000000
H    -4.723000000     4.328000000     4.423000000
C    -3.207000000     4.857000000     5.751000000
H    -3.762000000     4.658000000     6.665000000
C    -1.825000000     5.073000000     5.886000000
H    -1.358000000     5.030000000     6.867000000
C    -0.936000000     5.028000000     4.763000000
C    -1.443000000     4.938000000     3.461000000
H    -0.723000000     5.045000000     2.653000000
C    -0.026000000     0.338000000    -1.573000000
H    -0.005000000     0.098000000    -2.633000000
C     0.252000000    -0.685000000    -0.648000000
H     0.494000000    -1.696000000    -0.968000000
C     0.036000000    -0.423000000     0.694000000
H     0.115000000    -1.209000000     1.465000000
C    -0.313000000     0.895000000     1.108000000
H    -0.437000000     1.207000000     2.142000000
C    -0.421000000     1.945000000     0.163000000
H    -0.653000000     2.967000000     0.451000000
C    -0.210000000     1.656000000    -1.206000000
C    -0.309000000     2.749000000    -2.232000000
O    -0.493000000     3.883000000    -1.849000000
O    -0.228000000     2.532000000    -3.418000000
O    -0.092000000     7.990000000    -0.534000000
H     0.052000000     7.351000000    -1.231000000
H    -1.037000000     8.141000000    -0.539000000
O    -1.705000000     7.071000000    -4.373000000
H    -1.844000000     6.342000000    -3.768000000
H    -0.995000000     7.578000000    -3.979000000
O     1.744000000     6.891000000     1.378000000
H     1.784000000     5.936000000     1.419000000
H     1.725000000     7.090000000     0.442000000
O    -3.571000000     7.114000000    -6.634000000
H    -2.764000000     7.007000000    -6.130000000
H    -3.501000000     6.467000000    -7.337000000
O    -1.971000000     7.420000000     1.852000000
H    -1.035000000     7.617000000     1.816000000
H    -2.127000000     6.859000000     1.092000000
O    -2.051000000     3.015000000    -8.478000000
H    -1.943000000     2.112000000    -8.778000000
H    -1.684000000     3.019000000    -7.595000000
O    -2.212000000     5.758000000    -0.192000000
H    -2.348000000     5.446000000    -1.087000000
H    -2.278000000     4.972000000     0.349000000
O    -1.204000000     3.630000000    -5.629000000
H    -0.963000000     3.163000000    -4.829000000
H    -2.092000000     3.945000000    -5.465000000
O     1.033000000     4.412000000    -7.067000000
H     0.201000000     4.084000000    -6.728000000
H     1.163000000     5.248000000    -6.618000000
O     1.780000000     4.127000000    -0.426000000
H     2.326000000     3.523000000    -0.929000000
H     1.073000000     4.366000000    -1.026000000
O     2.621000000     2.550000000    -8.653000000
H     2.137000000     3.120000000    -8.055000000
H     2.865000000     3.120000000    -9.382000000
O     3.242000000     8.416000000    -2.535000000
H     3.439000000     9.204000000    -3.041000000
H     3.500000000     7.693000000    -3.107000000
O     2.044000000     4.047000000    -3.685000000
H     1.314000000     3.474000000    -3.451000000
H     2.144000000     3.935000000    -4.631000000
O    -4.069000000     3.471000000    -4.827000000
H    -4.625000000     2.710000000    -4.658000000
H    -4.529000000     3.957000000    -5.511000000
O     4.294000000     5.855000000    -3.660000000
H     3.745000000     5.076000000    -3.582000000
H     5.190000000     5.517000000    -3.664000000
O     0.411000000     6.185000000    -2.684000000
H     0.090000000     5.306000000    -2.485000000
H     1.206000000     6.040000000    -3.198000000
O    -2.930000000     4.730000000    -2.577000000
H    -2.098000000     4.259000000    -2.527000000
H    -3.518000000     4.128000000    -3.034000000
O     0.978000000     7.051000000    -5.744000000
H     0.021000000     7.016000000    -5.756000000
H     1.184000000     7.981000000    -5.842000000
O    -5.715000000     5.768000000    -2.187000000
H    -4.807000000     5.491000000    -2.062000000
H    -5.922000000     6.273000000    -1.401000000
