215
-1468.02447
C     0.689000000     2.338000000     4.564000000
H     0.660000000     3.057000000     3.749000000
C     1.665000000     1.246000000     4.572000000
C     1.516000000     0.164000000     5.441000000
H     2.210000000    -0.672000000     5.424000000
C     2.675000000     1.091000000     3.413000000
O     3.331000000     2.381000000     3.129000000
H     2.080000000     0.769000000     2.546000000
O     3.643000000     0.099000000     3.615000000
C     3.948000000    -0.727000000     2.509000000
C     3.243000000    -1.902000000     2.510000000
H     2.403000000    -2.178000000     3.143000000
C     3.352000000    -2.749000000     1.436000000
O     2.507000000    -3.845000000     1.415000000
C     4.220000000    -2.447000000     0.396000000
C     4.401000000    -3.427000000    -0.828000000
H     5.353000000    -3.269000000    -1.340000000
C     3.342000000    -3.181000000    -1.958000000
C     3.567000000    -2.350000000    -3.052000000
H     4.459000000    -1.746000000    -3.199000000
H     4.455000000    -4.455000000    -0.463000000
C     4.933000000    -1.241000000     0.398000000
H     5.583000000    -1.006000000    -0.441000000
C     4.768000000    -0.355000000     1.445000000
C     5.374000000     1.032000000     1.502000000
H     6.282000000     1.076000000     0.898000000
H     5.754000000     1.215000000     2.509000000
C     4.382000000     2.082000000     0.958000000
C     4.474000000     2.324000000    -0.403000000
H     5.074000000     1.735000000    -1.092000000
C     3.514000000     2.791000000     1.796000000
C     2.647000000     3.789000000     1.260000000
H     1.936000000     4.338000000     1.871000000
C     2.707000000     3.977000000    -0.146000000
O     1.711000000     4.678000000    -0.745000000
C     0.599000000     4.018000000    -1.439000000
C    -0.706000000     4.685000000    -0.991000000
C    -1.866000000     4.319000000    -1.701000000
H    -1.786000000     3.585000000    -2.498000000
C    -0.821000000     5.339000000     0.239000000
H     0.025000000     5.617000000     0.862000000
O     0.806000000     3.988000000    -2.799000000
H     0.524000000     3.016000000    -0.994000000
C     3.603000000     3.269000000    -0.929000000
C     3.586000000     3.488000000    -2.428000000
H     4.555000000     3.263000000    -2.879000000
H     3.193000000     4.485000000    -2.638000000
C     2.708000000     2.547000000    -3.116000000
C     3.136000000     1.238000000    -3.625000000
H     4.142000000     0.839000000    -3.518000000
C     1.320000000     2.836000000    -3.320000000
C     0.413000000     2.013000000    -4.020000000
H    -0.608000000     2.345000000    -4.190000000
C     0.917000000     0.724000000    -4.373000000
O    -0.012000000    -0.094000000    -4.914000000
C    -0.511000000    -1.204000000    -4.171000000
C    -2.103000000    -1.273000000    -4.330000000
C    -2.826000000    -0.163000000    -4.634000000
H    -2.335000000     0.799000000    -4.760000000
C    -2.747000000    -2.486000000    -4.076000000
H    -2.216000000    -3.401000000    -3.827000000
O     0.113000000    -2.469000000    -4.548000000
H    -0.318000000    -1.025000000    -3.104000000
C     2.228000000     0.366000000    -4.184000000
C     2.659000000    -0.961000000    -4.886000000
H     3.693000000    -0.804000000    -5.198000000
H     2.068000000    -1.116000000    -5.791000000
C     2.456000000    -2.161000000    -3.969000000
C     1.230000000    -2.893000000    -3.835000000
C     1.001000000    -3.636000000    -2.720000000
H     0.040000000    -4.113000000    -2.548000000
C     2.093000000    -3.853000000    -1.870000000
O     1.739000000    -4.609000000    -0.726000000
C     1.377000000    -3.928000000     0.533000000
H     1.218000000    -2.874000000     0.261000000
C     0.134000000    -4.537000000     1.235000000
C    -0.073000000    -4.194000000     2.580000000
H     0.702000000    -3.714000000     3.172000000
C    -0.921000000    -5.043000000     0.421000000
H    -0.830000000    -5.193000000    -0.652000000
C    -2.130000000    -5.304000000     0.988000000
O    -3.244000000    -5.845000000     0.329000000
C    -2.333000000    -4.922000000     2.288000000
H    -3.341000000    -5.016000000     2.685000000
C    -1.352000000    -4.357000000     3.064000000
O    -1.659000000    -3.952000000     4.395000000
C    -0.733000000    -3.715000000     5.392000000
C    -0.632000000    -2.414000000     5.758000000
H    -1.202000000    -1.657000000     5.225000000
C    -0.049000000    -4.766000000     6.098000000
H    -0.177000000    -5.789000000     5.753000000
C     0.770000000    -4.461000000     7.188000000
H     1.268000000    -5.283000000     7.696000000
C     0.902000000    -3.131000000     7.582000000
H     1.432000000    -2.857000000     8.491000000
C     0.209000000    -2.156000000     6.847000000
O     0.377000000    -0.868000000     7.242000000
C     0.444000000     0.183000000     6.335000000
C    -0.450000000     1.247000000     6.382000000
H    -1.232000000     1.174000000     7.134000000
C    -0.387000000     2.279000000     5.438000000
O    -1.486000000     3.161000000     5.428000000
C    -1.402000000     4.429000000     4.867000000
C    -2.075000000     4.854000000     3.663000000
H    -2.684000000     4.160000000     3.088000000
C    -0.567000000     5.347000000     5.541000000
H    -0.132000000     5.029000000     6.485000000
C    -0.396000000     6.683000000     5.020000000
H     0.201000000     7.419000000     5.552000000
C    -0.984000000     6.975000000     3.787000000
H    -0.687000000     7.929000000     3.360000000
C    -1.738000000     6.077000000     3.070000000
O    -2.283000000     6.410000000     1.853000000
C    -2.129000000     5.639000000     0.731000000
C    -3.281000000     5.314000000    -0.036000000
H    -4.261000000     5.387000000     0.429000000
C    -3.149000000     4.526000000    -1.197000000
O    -4.299000000     4.025000000    -1.786000000
C    -4.278000000     3.703000000    -3.133000000
C    -4.494000000     2.382000000    -3.416000000
H    -4.442000000     1.631000000    -2.632000000
C    -4.359000000     4.721000000    -4.085000000
H    -4.107000000     5.703000000    -3.692000000
C    -4.548000000     4.403000000    -5.404000000
H    -4.539000000     5.196000000    -6.147000000
C    -4.762000000     3.081000000    -5.722000000
H    -5.014000000     2.789000000    -6.738000000
C    -4.714000000     2.095000000    -4.723000000
O    -5.019000000     0.777000000    -5.123000000
C    -4.201000000    -0.268000000    -4.802000000
C    -4.906000000    -1.431000000    -4.573000000
H    -5.989000000    -1.523000000    -4.567000000
C    -4.150000000    -2.548000000    -4.178000000
O    -4.748000000    -3.667000000    -3.719000000
C    -4.182000000    -4.749000000    -3.031000000
C    -3.795000000    -5.840000000    -3.770000000
H    -3.913000000    -5.822000000    -4.851000000
C    -3.157000000    -6.948000000    -3.159000000
H    -2.907000000    -7.783000000    -3.808000000
C    -3.081000000    -7.010000000    -1.760000000
H    -2.581000000    -7.823000000    -1.240000000
C    -3.367000000    -5.855000000    -1.038000000
C    -4.001000000    -4.729000000    -1.690000000
H    -4.348000000    -3.894000000    -1.087000000
C    -2.877000000    -0.591000000    -0.717000000
H    -3.777000000    -0.528000000    -1.322000000
C    -1.692000000    -0.020000000    -1.228000000
H    -1.764000000     0.351000000    -2.247000000
C    -0.518000000     0.042000000    -0.477000000
H     0.376000000     0.587000000    -0.835000000
C    -0.502000000    -0.513000000     0.819000000
H     0.446000000    -0.468000000     1.349000000
C    -1.636000000    -1.212000000     1.282000000
H    -1.545000000    -1.744000000     2.226000000
C    -2.832000000    -1.109000000     0.578000000
C    -4.103000000    -1.618000000     1.213000000
O    -4.251000000    -1.797000000     2.420000000
O    -5.080000000    -1.562000000     0.510000000
O    -5.327000000     3.070000000     4.573000000
H    -5.644000000     2.612000000     5.352000000
H    -5.506000000     2.466000000     3.851000000
O    -7.992000000    -6.099000000    -1.263000000
H    -8.237000000    -5.566000000    -2.019000000
H    -7.355000000    -5.565000000    -0.789000000
O    -3.852000000    -2.312000000     4.771000000
H    -3.296000000    -3.089000000     4.703000000
H    -3.972000000    -2.023000000     3.867000000
O    -9.106000000    -2.618000000    -0.544000000
H    -9.975000000    -2.942000000    -0.307000000
H    -9.010000000    -2.846000000    -1.469000000
O    -8.604000000     1.756000000     1.129000000
H    -7.854000000     1.188000000     1.304000000
H    -9.198000000     1.216000000     0.608000000
O    -7.199000000    -1.350000000     6.337000000
H    -6.482000000    -0.723000000     6.428000000
H    -7.064000000    -1.747000000     5.477000000
O    -6.805000000    -1.594000000     3.691000000
H    -6.963000000    -1.242000000     2.816000000
H    -6.059000000    -2.183000000     3.582000000
O    -5.614000000     1.850000000     0.110000000
H    -4.919000000     2.432000000    -0.196000000
H    -6.423000000     2.269000000    -0.184000000
O    -7.449000000    -0.663000000     0.946000000
H    -7.984000000    -1.053000000     0.255000000
H    -6.560000000    -0.965000000     0.759000000
O    -7.637000000    -3.713000000    -3.035000000
H    -8.029000000    -3.500000000    -3.882000000
H    -6.713000000    -3.865000000    -3.231000000
O    -6.523000000    -0.344000000    -1.692000000
H    -6.109000000     0.203000000    -1.024000000
H    -6.255000000    -1.236000000    -1.471000000
O   -10.299000000    -0.181000000    -0.188000000
H   -11.256000000    -0.162000000    -0.208000000
H   -10.076000000    -1.108000000    -0.270000000
O    -6.919000000    -6.291000000     1.868000000
H    -7.735000000    -6.195000000     2.361000000
H    -6.789000000    -5.438000000     1.454000000
O    -6.515000000    -4.166000000     0.322000000
H    -5.953000000    -3.422000000     0.535000000
H    -7.298000000    -3.772000000    -0.063000000
O    -5.455000000     0.835000000     2.866000000
H    -5.149000000    -0.060000000     3.008000000
H    -5.421000000     0.953000000     1.917000000
O    -9.865000000    -1.816000000     4.195000000
H    -9.731000000    -0.999000000     4.677000000
H    -8.981000000    -2.128000000     4.003000000
O    -8.913000000     0.772000000    -2.773000000
H    -8.057000000     0.393000000    -2.575000000
H    -9.376000000     0.769000000    -1.936000000
O    -4.610000000    -0.326000000     6.348000000
H    -4.375000000     0.248000000     5.619000000
H    -4.315000000    -1.194000000     6.074000000
O    -6.391000000    -6.980000000     5.083000000
H    -6.448000000    -6.236000000     4.482000000
H    -5.530000000    -7.360000000     4.911000000
