215
-1458.36288
C     0.483000000     1.895000000     5.141000000
H     0.708000000     2.705000000     4.451000000
C     1.245000000     0.719000000     4.995000000
C     0.877000000    -0.435000000     5.772000000
H     1.452000000    -1.350000000     5.659000000
C     2.240000000     0.544000000     3.879000000
O     3.032000000     1.719000000     3.663000000
H     1.661000000     0.391000000     2.956000000
O     3.174000000    -0.598000000     4.076000000
C     3.425000000    -1.252000000     2.944000000
C     2.631000000    -2.366000000     2.742000000
H     1.826000000    -2.646000000     3.417000000
C     2.700000000    -3.020000000     1.549000000
O     1.750000000    -4.090000000     1.358000000
C     3.689000000    -2.731000000     0.676000000
C     3.997000000    -3.513000000    -0.530000000
H     5.059000000    -3.410000000    -0.765000000
C     3.149000000    -3.141000000    -1.727000000
C     3.588000000    -2.187000000    -2.625000000
H     4.575000000    -1.752000000    -2.488000000
H     3.898000000    -4.552000000    -0.208000000
C     4.617000000    -1.655000000     0.944000000
H     5.460000000    -1.348000000     0.331000000
C     4.439000000    -0.871000000     2.077000000
C     5.236000000     0.385000000     2.259000000
H     6.202000000     0.308000000     1.755000000
H     5.496000000     0.803000000     3.233000000
C     4.439000000     1.548000000     1.652000000
C     4.649000000     1.950000000     0.344000000
H     5.506000000     1.603000000    -0.227000000
C     3.354000000     2.099000000     2.397000000
C     2.604000000     3.134000000     1.827000000
H     1.805000000     3.570000000     2.420000000
C     2.839000000     3.581000000     0.551000000
O     1.859000000     4.463000000     0.066000000
C     0.850000000     3.825000000    -0.764000000
C    -0.538000000     4.367000000    -0.417000000
C    -1.515000000     4.154000000    -1.386000000
H    -1.322000000     3.631000000    -2.319000000
C    -0.778000000     5.005000000     0.777000000
H     0.045000000     5.230000000     1.451000000
O     1.186000000     4.065000000    -2.160000000
H     0.849000000     2.740000000    -0.581000000
C     3.866000000     2.962000000    -0.229000000
C     4.028000000     3.380000000    -1.718000000
H     5.033000000     3.220000000    -2.115000000
H     3.907000000     4.466000000    -1.706000000
C     3.057000000     2.658000000    -2.657000000
C     3.558000000     1.519000000    -3.256000000
H     4.563000000     1.212000000    -2.979000000
C     1.721000000     3.022000000    -2.901000000
C     0.932000000     2.331000000    -3.838000000
H    -0.069000000     2.678000000    -4.078000000
C     1.485000000     1.223000000    -4.462000000
O     0.591000000     0.465000000    -5.170000000
C     0.059000000    -0.735000000    -4.438000000
C    -1.414000000    -0.888000000    -4.640000000
C    -2.295000000     0.266000000    -4.835000000
H    -1.880000000     1.270000000    -4.866000000
C    -2.075000000    -2.121000000    -4.545000000
H    -1.463000000    -2.959000000    -4.220000000
O     0.690000000    -1.937000000    -4.832000000
H     0.393000000    -0.499000000    -3.417000000
C     2.770000000     0.737000000    -4.134000000
C     3.283000000    -0.610000000    -4.644000000
H     4.374000000    -0.576000000    -4.690000000
H     2.894000000    -0.751000000    -5.655000000
C     2.810000000    -1.771000000    -3.684000000
C     1.615000000    -2.415000000    -3.931000000
C     1.134000000    -3.302000000    -2.954000000
H     0.178000000    -3.805000000    -3.075000000
C     1.906000000    -3.690000000    -1.926000000
O     1.274000000    -4.445000000    -0.972000000
C     0.880000000    -3.814000000     0.252000000
H     0.803000000    -2.738000000     0.034000000
C    -0.515000000    -4.144000000     0.728000000
C    -0.908000000    -3.770000000     2.009000000
H    -0.096000000    -3.469000000     2.667000000
C    -1.461000000    -4.627000000    -0.157000000
H    -1.139000000    -5.049000000    -1.105000000
C    -2.776000000    -4.678000000     0.274000000
O    -3.779000000    -5.029000000    -0.650000000
C    -3.179000000    -4.384000000     1.566000000
H    -4.233000000    -4.413000000     1.828000000
C    -2.207000000    -3.855000000     2.410000000
O    -2.567000000    -3.372000000     3.663000000
C    -1.820000000    -3.503000000     4.830000000
C    -1.620000000    -2.380000000     5.624000000
H    -2.188000000    -1.477000000     5.418000000
C    -1.191000000    -4.702000000     5.087000000
H    -1.365000000    -5.529000000     4.403000000
C    -0.364000000    -4.859000000     6.227000000
H     0.133000000    -5.804000000     6.427000000
C    -0.180000000    -3.752000000     7.054000000
H     0.421000000    -3.770000000     7.960000000
C    -0.786000000    -2.501000000     6.704000000
O    -0.499000000    -1.385000000     7.452000000
C    -0.057000000    -0.235000000     6.839000000
C    -0.777000000     0.920000000     6.969000000
H    -1.613000000     1.011000000     7.657000000
C    -0.509000000     1.960000000     6.129000000
O    -1.417000000     3.056000000     6.094000000
C    -1.213000000     4.222000000     5.391000000
C    -1.833000000     4.404000000     4.165000000
H    -2.407000000     3.653000000     3.629000000
C    -0.497000000     5.269000000     5.898000000
H     0.005000000     5.232000000     6.862000000
C    -0.240000000     6.478000000     5.159000000
H     0.364000000     7.272000000     5.589000000
C    -0.903000000     6.626000000     3.916000000
H    -0.899000000     7.516000000     3.292000000
C    -1.672000000     5.605000000     3.434000000
O    -2.432000000     5.886000000     2.287000000
C    -2.054000000     5.517000000     1.001000000
C    -3.053000000     5.235000000     0.059000000
H    -4.077000000     5.546000000     0.247000000
C    -2.787000000     4.637000000    -1.167000000
O    -3.810000000     4.471000000    -2.090000000
C    -3.601000000     4.018000000    -3.398000000
C    -3.960000000     2.690000000    -3.761000000
H    -4.207000000     1.921000000    -3.033000000
C    -3.213000000     4.969000000    -4.289000000
H    -2.962000000     5.965000000    -3.932000000
C    -3.319000000     4.736000000    -5.584000000
H    -3.165000000     5.511000000    -6.330000000
C    -3.616000000     3.418000000    -6.001000000
H    -3.683000000     3.285000000    -7.077000000
C    -4.039000000     2.451000000    -5.092000000
O    -4.407000000     1.189000000    -5.499000000
C    -3.601000000     0.116000000    -5.325000000
C    -4.126000000    -1.168000000    -5.382000000
H    -5.140000000    -1.289000000    -5.756000000
C    -3.395000000    -2.283000000    -4.948000000
O    -3.931000000    -3.504000000    -5.090000000
C    -3.930000000    -4.525000000    -4.246000000
C    -3.734000000    -5.825000000    -4.703000000
H    -3.851000000    -6.026000000    -5.765000000
C    -3.425000000    -6.841000000    -3.773000000
H    -3.302000000    -7.851000000    -4.158000000
C    -3.525000000    -6.596000000    -2.411000000
H    -3.433000000    -7.350000000    -1.634000000
C    -3.573000000    -5.256000000    -1.960000000
C    -3.771000000    -4.243000000    -2.898000000
H    -3.956000000    -3.222000000    -2.574000000
C    -2.132000000     0.463000000    -0.640000000
H    -2.879000000     0.703000000    -1.391000000
C    -0.785000000     0.565000000    -0.938000000
H    -0.512000000     0.904000000    -1.934000000
C     0.142000000     0.120000000    -0.046000000
H     1.196000000     0.147000000    -0.349000000
C    -0.305000000    -0.380000000     1.164000000
H     0.410000000    -0.821000000     1.854000000
C    -1.642000000    -0.435000000     1.527000000
H    -1.878000000    -0.848000000     2.505000000
C    -2.633000000    -0.086000000     0.577000000
C    -4.102000000    -0.192000000     0.903000000
O    -4.330000000    -0.863000000     1.894000000
O    -5.011000000     0.068000000     0.125000000
O    -6.804000000     4.891000000     2.549000000
H    -6.829000000     4.472000000     1.689000000
H    -6.474000000     4.211000000     3.137000000
O    -6.982000000    -5.226000000     0.180000000
H    -6.798000000    -5.213000000    -0.760000000
H    -6.730000000    -4.355000000     0.485000000
O    -4.311000000    -1.094000000     4.596000000
H    -5.100000000    -1.621000000     4.720000000
H    -4.124000000    -1.158000000     3.659000000
O    -8.874000000    -2.682000000     0.233000000
H    -7.987000000    -2.422000000     0.482000000
H    -9.437000000    -2.274000000     0.891000000
O    -4.371000000     3.398000000     5.874000000
H    -4.200000000     3.039000000     5.003000000
H    -3.510000000     3.437000000     6.290000000
O    -8.705000000     0.632000000     0.228000000
H    -8.277000000     0.339000000     1.032000000
H    -9.399000000     1.221000000     0.526000000
O    -6.955000000    -2.142000000     4.557000000
H    -7.681000000    -2.741000000     4.382000000
H    -7.001000000    -1.977000000     5.498000000
O    -6.441000000     1.544000000    -1.667000000
H    -7.285000000     1.554000000    -1.216000000
H    -5.940000000     0.860000000    -1.223000000
O    -7.085000000    -0.036000000     2.809000000
H    -6.985000000    -0.550000000     3.610000000
H    -6.215000000    -0.045000000     2.409000000
O    -7.198000000    -3.069000000    -3.798000000
H    -7.423000000    -2.344000000    -4.381000000
H    -6.879000000    -2.645000000    -3.001000000
O    -7.961000000     3.588000000    -0.168000000
H    -8.334000000     4.328000000    -0.647000000
H    -8.717000000     3.157000000     0.232000000
O    -6.051000000    -1.869000000    -1.552000000
H    -5.407000000    -1.201000000    -1.314000000
H    -6.515000000    -2.054000000    -0.736000000
O    -6.408000000    -2.602000000     1.621000000
H    -5.502000000    -2.378000000     1.835000000
H    -6.906000000    -2.352000000     2.399000000
O    -3.987000000    -0.075000000     7.170000000
H    -4.222000000    -0.040000000     6.242000000
H    -3.953000000    -1.009000000     7.373000000
O    -5.996000000     2.610000000     1.208000000
H    -5.613000000     1.860000000     0.754000000
H    -6.593000000     2.998000000     0.568000000
O    -7.773000000     2.584000000     4.151000000
H    -7.489000000     2.257000000     5.005000000
H    -7.668000000     1.837000000     3.562000000
O    -4.392000000     2.042000000     3.664000000
H    -5.129000000     2.116000000     3.059000000
H    -3.954000000     1.229000000     3.411000000
O    -6.706000000     4.571000000    -2.699000000
H    -6.644000000     3.903000000    -2.016000000
H    -5.865000000     4.527000000    -3.153000000
O    -7.054000000    -5.263000000     3.625000000
H    -6.649000000    -5.840000000     2.978000000
H    -7.509000000    -4.601000000     3.105000000
