215
-1432.46565
C     1.124000000     2.173000000     4.025000000
H     1.831000000     2.818000000     3.509000000
C     1.431000000     0.821000000     4.042000000
C     0.616000000     0.010000000     4.855000000
H     0.781000000    -1.045000000     5.056000000
C     2.608000000     0.242000000     3.237000000
O     3.659000000     1.194000000     2.994000000
H     2.170000000     0.037000000     2.249000000
O     3.243000000    -0.968000000     3.753000000
C     3.341000000    -1.994000000     2.881000000
C     2.258000000    -2.845000000     2.706000000
H     1.529000000    -2.885000000     3.511000000
C     2.174000000    -3.800000000     1.682000000
O     1.101000000    -4.554000000     1.692000000
C     3.107000000    -3.718000000     0.683000000
C     2.977000000    -4.632000000    -0.425000000
H     3.919000000    -4.788000000    -0.954000000
C     1.925000000    -4.254000000    -1.434000000
C     2.387000000    -3.557000000    -2.577000000
H     3.454000000    -3.350000000    -2.570000000
H     2.727000000    -5.640000000    -0.087000000
C     4.183000000    -2.819000000     0.791000000
H     4.906000000    -2.788000000    -0.020000000
C     4.303000000    -1.950000000     1.877000000
C     5.302000000    -0.820000000     1.741000000
H     6.129000000    -1.170000000     1.121000000
H     5.678000000    -0.530000000     2.724000000
C     4.751000000     0.370000000     0.994000000
C     4.994000000     0.473000000    -0.418000000
H     5.584000000    -0.340000000    -0.835000000
C     3.958000000     1.351000000     1.635000000
C     3.482000000     2.431000000     0.938000000
H     2.863000000     3.104000000     1.527000000
C     3.796000000     2.594000000    -0.426000000
O     3.201000000     3.598000000    -1.132000000
C     1.938000000     3.527000000    -1.809000000
C     1.048000000     4.700000000    -1.528000000
C    -0.189000000     4.724000000    -2.163000000
H    -0.406000000     4.025000000    -2.967000000
C     1.248000000     5.515000000    -0.409000000
H     2.155000000     5.478000000     0.190000000
O     2.269000000     3.321000000    -3.151000000
H     1.491000000     2.582000000    -1.469000000
C     4.415000000     1.521000000    -1.114000000
C     4.604000000     1.587000000    -2.610000000
H     5.429000000     0.952000000    -2.938000000
H     4.911000000     2.617000000    -2.803000000
C     3.351000000     1.190000000    -3.343000000
C     3.330000000    -0.160000000    -3.712000000
H     4.141000000    -0.860000000    -3.531000000
C     2.281000000     2.045000000    -3.581000000
C     1.173000000     1.616000000    -4.237000000
H     0.302000000     2.252000000    -4.372000000
C     1.063000000     0.264000000    -4.481000000
O    -0.083000000    -0.213000000    -4.955000000
C    -0.853000000    -0.896000000    -3.968000000
C    -2.375000000    -0.560000000    -3.997000000
C    -2.739000000     0.731000000    -4.463000000
H    -1.885000000     1.346000000    -4.736000000
C    -3.284000000    -1.441000000    -3.487000000
H    -2.973000000    -2.345000000    -2.969000000
O    -0.692000000    -2.340000000    -4.114000000
H    -0.370000000    -0.711000000    -2.997000000
C     2.148000000    -0.579000000    -4.352000000
C     2.008000000    -2.077000000    -4.672000000
H     3.010000000    -2.455000000    -4.888000000
H     1.415000000    -2.309000000    -5.559000000
C     1.484000000    -2.932000000    -3.513000000
C     0.117000000    -3.139000000    -3.300000000
C    -0.309000000    -3.908000000    -2.249000000
H    -1.354000000    -4.209000000    -2.241000000
C     0.529000000    -4.454000000    -1.350000000
O    -0.017000000    -5.092000000    -0.275000000
C    -0.089000000    -4.264000000     0.894000000
H    -0.122000000    -3.243000000     0.485000000
C    -1.422000000    -4.277000000     1.627000000
C    -1.440000000    -4.356000000     3.004000000
H    -0.474000000    -4.487000000     3.485000000
C    -2.649000000    -4.301000000     0.870000000
H    -2.751000000    -4.209000000    -0.208000000
C    -3.841000000    -4.297000000     1.616000000
O    -5.052000000    -4.164000000     0.940000000
C    -3.900000000    -4.402000000     3.004000000
H    -4.825000000    -4.496000000     3.567000000
C    -2.659000000    -4.464000000     3.655000000
O    -2.645000000    -4.554000000     5.018000000
C    -1.887000000    -3.785000000     5.818000000
C    -1.862000000    -2.415000000     5.705000000
H    -2.415000000    -1.857000000     4.954000000
C    -1.276000000    -4.398000000     6.973000000
H    -1.328000000    -5.476000000     7.102000000
C    -0.582000000    -3.613000000     7.892000000
H    -0.184000000    -4.212000000     8.707000000
C    -0.458000000    -2.234000000     7.664000000
H     0.182000000    -1.628000000     8.302000000
C    -1.135000000    -1.670000000     6.589000000
O    -1.209000000    -0.281000000     6.473000000
C    -0.475000000     0.500000000     5.604000000
C    -0.846000000     1.780000000     5.375000000
H    -1.640000000     2.131000000     6.028000000
C    -0.030000000     2.627000000     4.653000000
O    -0.490000000     3.972000000     4.537000000
C     0.161000000     5.111000000     4.053000000
C    -0.040000000     5.610000000     2.782000000
H    -0.745000000     5.129000000     2.109000000
C     1.003000000     5.752000000     4.933000000
H     1.080000000     5.387000000     5.954000000
C     1.751000000     6.868000000     4.494000000
H     2.404000000     7.369000000     5.203000000
C     1.584000000     7.341000000     3.219000000
H     2.087000000     8.225000000     2.835000000
C     0.692000000     6.708000000     2.354000000
O     0.409000000     7.237000000     1.133000000
C     0.304000000     6.506000000    -0.042000000
C    -0.806000000     6.735000000    -0.870000000
H    -1.518000000     7.511000000    -0.600000000
C    -1.011000000     5.769000000    -1.909000000
O    -2.256000000     5.798000000    -2.461000000
C    -2.585000000     5.188000000    -3.667000000
C    -3.416000000     4.062000000    -3.684000000
H    -3.803000000     3.693000000    -2.738000000
C    -1.888000000     5.547000000    -4.843000000
H    -1.228000000     6.411000000    -4.827000000
C    -2.132000000     4.909000000    -6.054000000
H    -1.611000000     5.202000000    -6.962000000
C    -3.029000000     3.783000000    -6.057000000
H    -3.191000000     3.216000000    -6.970000000
C    -3.666000000     3.414000000    -4.870000000
O    -4.471000000     2.317000000    -4.913000000
C    -4.069000000     1.098000000    -4.432000000
C    -5.020000000     0.042000000    -4.106000000
H    -6.094000000     0.213000000    -4.130000000
C    -4.665000000    -1.203000000    -3.782000000
O    -5.688000000    -2.051000000    -3.330000000
C    -5.485000000    -3.138000000    -2.553000000
C    -5.228000000    -4.326000000    -3.246000000
H    -5.213000000    -4.246000000    -4.330000000
C    -4.848000000    -5.480000000    -2.480000000
H    -4.571000000    -6.390000000    -3.007000000
C    -4.840000000    -5.481000000    -1.100000000
H    -4.653000000    -6.370000000    -0.504000000
C    -5.194000000    -4.292000000    -0.391000000
C    -5.352000000    -3.093000000    -1.146000000
H    -5.485000000    -2.137000000    -0.648000000
C    -3.289000000    -0.016000000     0.058000000
H    -4.245000000     0.241000000    -0.393000000
C    -2.187000000     0.406000000    -0.630000000
H    -2.230000000     1.029000000    -1.519000000
C    -0.922000000     0.137000000    -0.119000000
H    -0.079000000     0.527000000    -0.588000000
C    -0.781000000    -0.495000000     1.136000000
H     0.222000000    -0.814000000     1.409000000
C    -1.952000000    -0.768000000     1.921000000
H    -1.766000000    -1.102000000     2.939000000
C    -3.235000000    -0.590000000     1.352000000
C    -4.473000000    -0.841000000     2.055000000
O    -4.536000000    -1.204000000     3.204000000
O    -5.484000000    -0.540000000     1.421000000
O    -7.832000000    -3.300000000     3.258000000
H    -8.111000000    -2.833000000     4.046000000
H    -7.929000000    -2.661000000     2.553000000
O    -5.762000000    -2.430000000     5.275000000
H    -6.056000000    -2.946000000     4.524000000
H    -5.237000000    -1.727000000     4.892000000
O    -4.176000000     0.508000000     5.275000000
H    -3.737000000     1.144000000     4.712000000
H    -4.564000000    -0.122000000     4.667000000
O    -7.299000000     3.177000000     2.798000000
H    -6.681000000     3.171000000     3.529000000
H    -7.113000000     3.993000000     2.334000000
O    -3.702000000     2.568000000     2.891000000
H    -3.832000000     3.492000000     3.105000000
H    -3.070000000     2.576000000     2.171000000
O    -6.332000000     1.873000000     0.674000000
H    -6.486000000     2.444000000     1.426000000
H    -5.964000000     1.074000000     1.051000000
O    -8.179000000    -1.099000000     1.407000000
H    -7.232000000    -0.972000000     1.462000000
H    -8.548000000    -0.243000000     1.626000000
O    -2.400000000     3.407000000     0.357000000
H    -2.108000000     2.502000000     0.243000000
H    -3.265000000     3.432000000    -0.052000000
O    -4.487000000    -3.087000000     7.584000000
H    -4.483000000    -4.031000000     7.744000000
H    -4.806000000    -2.998000000     6.686000000
O    -8.466000000     2.191000000    -0.835000000
H    -7.608000000     2.104000000    -0.419000000
H    -8.414000000     1.633000000    -1.611000000
O    -7.403000000    -5.747000000     0.989000000
H    -7.793000000    -5.970000000     1.835000000
H    -6.463000000    -5.698000000     1.165000000
O    -9.157000000    -0.965000000     4.580000000
H    -9.392000000    -0.468000000     5.364000000
H    -8.369000000    -0.533000000     4.250000000
O    -7.158000000    -5.423000000     4.611000000
H    -7.187000000    -4.596000000     4.130000000
H    -7.967000000    -5.871000000     4.366000000
O    -6.538000000     1.838000000     6.124000000
H    -6.174000000     2.680000000     5.850000000
H    -5.774000000     1.269000000     6.224000000
O   -11.119000000    -1.579000000     1.678000000
H   -11.496000000    -0.803000000     2.092000000
H   -10.189000000    -1.373000000     1.586000000
O    -4.182000000     0.121000000     8.312000000
H    -3.995000000    -0.142000000     7.411000000
H    -5.114000000     0.338000000     8.309000000
O    -5.135000000     3.931000000    -0.488000000
H    -5.603000000     3.140000000    -0.221000000
H    -5.578000000     4.213000000    -1.288000000
O    -9.339000000     1.305000000     1.832000000
H    -8.613000000     1.698000000     2.316000000
H    -9.341000000     1.762000000     0.991000000
O    -8.582000000    -1.540000000    -1.268000000
H    -8.345000000    -1.194000000    -0.408000000
H    -8.432000000    -0.810000000    -1.870000000
