215
-1447.16634
C     0.107000000     1.847000000     4.006000000
H     0.365000000     2.317000000     3.060000000
C     1.084000000     0.951000000     4.401000000
C     0.788000000     0.072000000     5.430000000
H     1.493000000    -0.688000000     5.759000000
C     2.293000000     0.718000000     3.547000000
O     3.204000000     1.884000000     3.368000000
H     1.877000000     0.438000000     2.568000000
O     3.060000000    -0.440000000     4.035000000
C     3.305000000    -1.400000000     3.108000000
C     2.528000000    -2.556000000     3.133000000
H     1.662000000    -2.650000000     3.783000000
C     2.597000000    -3.426000000     2.086000000
O     1.591000000    -4.385000000     1.957000000
C     3.497000000    -3.294000000     1.046000000
C     3.519000000    -4.339000000    -0.143000000
H     4.527000000    -4.392000000    -0.559000000
C     2.536000000    -3.870000000    -1.242000000
C     3.141000000    -3.125000000    -2.300000000
H     4.169000000    -2.788000000    -2.195000000
H     3.146000000    -5.320000000     0.158000000
C     4.377000000    -2.225000000     1.063000000
H     5.038000000    -2.153000000     0.203000000
C     4.263000000    -1.250000000     2.090000000
C     5.142000000    -0.008000000     2.168000000
H     6.125000000    -0.231000000     1.747000000
H     5.332000000     0.396000000     3.165000000
C     4.564000000     1.199000000     1.470000000
C     4.918000000     1.399000000     0.136000000
H     5.651000000     0.709000000    -0.275000000
C     3.615000000     2.071000000     2.084000000
C     2.994000000     3.049000000     1.352000000
H     2.244000000     3.697000000     1.798000000
C     3.252000000     3.185000000     0.025000000
O     2.629000000     4.179000000    -0.680000000
C     1.511000000     3.778000000    -1.527000000
C     0.222000000     4.606000000    -1.480000000
C    -0.599000000     4.745000000    -2.595000000
H    -0.318000000     4.419000000    -3.593000000
C    -0.181000000     5.285000000    -0.293000000
H     0.493000000     5.299000000     0.560000000
O     2.052000000     3.633000000    -2.905000000
H     1.120000000     2.832000000    -1.124000000
C     4.290000000     2.401000000    -0.611000000
C     4.624000000     2.525000000    -2.053000000
H     5.659000000     2.187000000    -2.132000000
H     4.611000000     3.572000000    -2.361000000
C     3.678000000     1.852000000    -3.059000000
C     3.818000000     0.515000000    -3.420000000
H     4.767000000     0.024000000    -3.220000000
C     2.423000000     2.373000000    -3.359000000
C     1.442000000     1.726000000    -4.017000000
H     0.494000000     2.251000000    -4.094000000
C     1.663000000     0.391000000    -4.407000000
O     0.578000000    -0.243000000    -4.946000000
C    -0.203000000    -1.115000000    -4.141000000
C    -1.676000000    -0.901000000    -4.341000000
C    -2.099000000     0.328000000    -5.033000000
H    -1.370000000     1.036000000    -5.419000000
C    -2.559000000    -1.687000000    -3.723000000
H    -2.178000000    -2.522000000    -3.139000000
O     0.177000000    -2.491000000    -4.338000000
H    -0.020000000    -0.920000000    -3.074000000
C     2.820000000    -0.285000000    -4.037000000
C     2.969000000    -1.760000000    -4.384000000
H     4.030000000    -1.997000000    -4.486000000
H     2.573000000    -1.951000000    -5.384000000
C     2.399000000    -2.730000000    -3.396000000
C     1.088000000    -3.087000000    -3.441000000
C     0.469000000    -3.836000000    -2.434000000
H    -0.610000000    -3.947000000    -2.514000000
C     1.140000000    -4.194000000    -1.253000000
O     0.520000000    -4.745000000    -0.175000000
C     0.542000000    -4.008000000     1.098000000
H     0.558000000    -2.939000000     0.840000000
C    -0.895000000    -4.304000000     1.713000000
C    -1.053000000    -4.259000000     3.109000000
H    -0.148000000    -4.038000000     3.670000000
C    -2.002000000    -4.638000000     0.881000000
H    -1.859000000    -4.530000000    -0.191000000
C    -3.259000000    -4.812000000     1.464000000
O    -4.444000000    -4.928000000     0.751000000
C    -3.334000000    -4.815000000     2.880000000
H    -4.361000000    -4.804000000     3.237000000
C    -2.293000000    -4.456000000     3.701000000
O    -2.532000000    -4.412000000     5.083000000
C    -1.652000000    -3.886000000     6.033000000
C    -1.391000000    -2.530000000     6.107000000
H    -1.715000000    -1.923000000     5.265000000
C    -1.192000000    -4.760000000     7.028000000
H    -1.384000000    -5.830000000     7.006000000
C    -0.504000000    -4.181000000     8.063000000
H     0.001000000    -4.748000000     8.841000000
C    -0.275000000    -2.823000000     8.169000000
H     0.308000000    -2.517000000     9.034000000
C    -0.700000000    -1.957000000     7.140000000
O    -0.557000000    -0.591000000     7.264000000
C    -0.376000000     0.266000000     6.213000000
C    -1.278000000     1.267000000     5.873000000
H    -2.165000000     1.495000000     6.459000000
C    -1.042000000     2.035000000     4.722000000
O    -1.870000000     3.026000000     4.354000000
C    -1.549000000     4.353000000     3.921000000
C    -1.827000000     4.833000000     2.636000000
H    -2.322000000     4.259000000     1.856000000
C    -0.811000000     5.204000000     4.806000000
H    -0.549000000     4.922000000     5.822000000
C    -0.531000000     6.497000000     4.387000000
H    -0.016000000     7.260000000     4.966000000
C    -0.828000000     6.978000000     3.112000000
H    -0.494000000     7.969000000     2.815000000
C    -1.476000000     6.112000000     2.202000000
O    -1.765000000     6.549000000     0.954000000
C    -1.405000000     5.923000000    -0.189000000
C    -2.126000000     6.095000000    -1.420000000
H    -3.034000000     6.690000000    -1.473000000
C    -1.776000000     5.462000000    -2.606000000
O    -2.421000000     5.808000000    -3.818000000
C    -2.413000000     4.923000000    -4.919000000
C    -3.267000000     3.793000000    -4.802000000
H    -3.948000000     3.629000000    -3.971000000
C    -1.711000000     5.219000000    -6.069000000
H    -1.331000000     6.227000000    -6.213000000
C    -1.779000000     4.346000000    -7.109000000
H    -1.306000000     4.558000000    -8.064000000
C    -2.549000000     3.170000000    -7.075000000
H    -2.768000000     2.653000000    -8.006000000
C    -3.248000000     2.914000000    -5.893000000
O    -3.958000000     1.722000000    -5.835000000
C    -3.483000000     0.592000000    -5.171000000
C    -4.392000000    -0.237000000    -4.479000000
H    -5.464000000    -0.058000000    -4.521000000
C    -3.933000000    -1.353000000    -3.729000000
O    -4.819000000    -2.009000000    -2.894000000
C    -4.634000000    -3.267000000    -2.416000000
C    -4.612000000    -4.398000000    -3.293000000
H    -4.690000000    -4.166000000    -4.352000000
C    -4.546000000    -5.694000000    -2.822000000
H    -4.541000000    -6.493000000    -3.559000000
C    -4.650000000    -5.815000000    -1.425000000
H    -4.642000000    -6.815000000    -0.999000000
C    -4.621000000    -4.722000000    -0.576000000
C    -4.641000000    -3.426000000    -1.091000000
H    -4.671000000    -2.563000000    -0.431000000
C    -2.546000000     1.211000000    -0.569000000
H    -3.290000000     1.838000000    -1.053000000
C    -1.255000000     1.269000000    -1.124000000
H    -0.990000000     1.878000000    -1.984000000
C    -0.206000000     0.526000000    -0.563000000
H     0.784000000     0.599000000    -1.137000000
C    -0.442000000    -0.090000000     0.606000000
H     0.354000000    -0.703000000     1.021000000
C    -1.755000000    -0.075000000     1.214000000
H    -1.939000000    -0.707000000     2.078000000
C    -2.891000000     0.492000000     0.561000000
C    -4.345000000     0.205000000     0.891000000
O    -4.546000000    -0.662000000     1.785000000
O    -5.310000000     0.751000000     0.289000000
O    -7.853000000     4.206000000     3.941000000
H    -7.095000000     3.985000000     3.400000000
H    -8.596000000     4.173000000     3.338000000
O    -8.455000000    -4.266000000     2.983000000
H    -8.110000000    -3.518000000     2.495000000
H    -8.693000000    -3.905000000     3.837000000
O    -4.057000000     1.355000000     4.726000000
H    -3.197000000     1.599000000     4.383000000
H    -4.678000000     1.732000000     4.103000000
O    -7.171000000     0.959000000     2.041000000
H    -7.953000000     0.683000000     1.563000000
H    -6.456000000     0.849000000     1.414000000
O    -5.984000000     2.433000000    -1.870000000
H    -6.838000000     2.015000000    -1.977000000
H    -5.633000000     2.058000000    -1.063000000
O    -6.709000000     4.017000000    -4.547000000
H    -7.104000000     3.558000000    -5.288000000
H    -6.731000000     3.381000000    -3.831000000
O    -6.805000000    -2.180000000     1.828000000
H    -6.287000000    -1.379000000     1.906000000
H    -6.213000000    -2.810000000     1.419000000
O    -5.742000000    -2.899000000     6.462000000
H    -5.448000000    -2.672000000     5.580000000
H    -5.104000000    -2.481000000     7.041000000
O    -4.580000000    -1.214000000     4.420000000
H    -4.231000000    -0.342000000     4.606000000
H    -4.445000000    -1.330000000     3.479000000
O    -6.771000000    -1.006000000    -1.010000000
H    -6.297000000    -0.393000000    -0.447000000
H    -6.197000000    -1.129000000    -1.766000000
O    -9.371000000     1.336000000    -2.116000000
H    -9.861000000     0.981000000    -1.374000000
H    -9.653000000     2.249000000    -2.175000000
O    -7.226000000    -0.230000000     4.586000000
H    -7.135000000     0.421000000     3.890000000
H    -6.408000000    -0.726000000     4.559000000
O    -8.420000000    -3.051000000    -1.758000000
H    -8.759000000    -3.702000000    -1.144000000
H    -7.875000000    -2.476000000    -1.220000000
O    -5.959000000     3.963000000     2.128000000
H    -5.889000000     4.554000000     1.378000000
H    -5.721000000     3.104000000     1.779000000
O    -8.960000000    -0.870000000     0.680000000
H    -8.082000000    -1.237000000     0.785000000
H    -9.492000000    -1.606000000     0.377000000
O    -4.638000000     1.839000000     7.370000000
H    -4.587000000     1.459000000     6.493000000
H    -5.137000000     2.648000000     7.251000000
O    -5.805000000     4.998000000    -0.471000000
H    -5.875000000     4.492000000    -1.281000000
H    -6.705000000     5.254000000    -0.269000000
O   -10.551000000     0.904000000     2.626000000
H   -10.864000000     0.128000000     3.091000000
H    -9.788000000     0.597000000     2.135000000
O    -7.691000000    -1.767000000    -4.096000000
H    -7.056000000    -2.449000000    -4.318000000
H    -8.157000000    -2.113000000    -3.335000000
