215
-1462.11009
C     1.121000000     2.564000000     4.397000000
H     1.451000000     3.347000000     3.719000000
C     1.664000000     1.284000000     4.301000000
C     1.309000000     0.303000000     5.232000000
H     1.719000000    -0.701000000     5.151000000
C     2.612000000     1.008000000     3.165000000
O     3.457000000     2.222000000     2.925000000
H     2.084000000     0.670000000     2.261000000
O     3.544000000    -0.119000000     3.497000000
C     3.643000000    -1.017000000     2.439000000
C     2.920000000    -2.177000000     2.475000000
H     2.288000000    -2.461000000     3.312000000
C     3.159000000    -3.051000000     1.398000000
O     2.445000000    -4.263000000     1.432000000
C     4.023000000    -2.816000000     0.356000000
C     4.017000000    -3.780000000    -0.842000000
H     4.998000000    -3.718000000    -1.318000000
C     2.868000000    -3.494000000    -1.824000000
C     3.070000000    -2.737000000    -2.983000000
H     4.090000000    -2.494000000    -3.270000000
H     4.022000000    -4.768000000    -0.376000000
C     4.758000000    -1.646000000     0.372000000
H     5.441000000    -1.486000000    -0.458000000
C     4.616000000    -0.763000000     1.423000000
C     5.375000000     0.605000000     1.497000000
H     6.295000000     0.500000000     0.918000000
H     5.765000000     0.744000000     2.507000000
C     4.494000000     1.684000000     0.787000000
C     4.601000000     1.929000000    -0.595000000
H     5.273000000     1.291000000    -1.164000000
C     3.671000000     2.498000000     1.563000000
C     2.916000000     3.466000000     0.930000000
H     2.196000000     4.001000000     1.544000000
C     2.850000000     3.586000000    -0.496000000
O     1.819000000     4.243000000    -1.076000000
C     0.668000000     3.642000000    -1.616000000
C    -0.511000000     4.534000000    -1.238000000
C    -1.711000000     4.426000000    -2.076000000
H    -1.709000000     3.818000000    -2.977000000
C    -0.609000000     5.417000000    -0.139000000
H     0.258000000     5.627000000     0.481000000
O     0.937000000     3.605000000    -3.018000000
H     0.538000000     2.613000000    -1.249000000
C     3.694000000     2.709000000    -1.261000000
C     3.693000000     2.696000000    -2.749000000
H     4.690000000     2.369000000    -3.054000000
H     3.707000000     3.734000000    -3.090000000
C     2.582000000     1.870000000    -3.408000000
C     2.884000000     0.625000000    -3.984000000
H     3.841000000     0.112000000    -3.922000000
C     1.293000000     2.400000000    -3.528000000
C     0.308000000     1.725000000    -4.174000000
H    -0.682000000     2.170000000    -4.114000000
C     0.521000000     0.461000000    -4.658000000
O    -0.558000000    -0.321000000    -4.963000000
C    -1.056000000    -1.129000000    -3.912000000
C    -2.559000000    -1.094000000    -3.879000000
C    -3.322000000    -0.026000000    -4.291000000
H    -2.802000000     0.792000000    -4.783000000
C    -3.237000000    -2.052000000    -3.142000000
H    -2.673000000    -2.826000000    -2.628000000
O    -0.520000000    -2.429000000    -4.120000000
H    -0.696000000    -0.667000000    -2.982000000
C     1.811000000    -0.057000000    -4.572000000
C     2.137000000    -1.493000000    -4.970000000
H     3.153000000    -1.656000000    -5.333000000
H     1.523000000    -1.814000000    -5.814000000
C     1.915000000    -2.354000000    -3.766000000
C     0.620000000    -2.733000000    -3.393000000
C     0.494000000    -3.686000000    -2.359000000
H    -0.489000000    -4.047000000    -2.069000000
C     1.589000000    -4.092000000    -1.621000000
O     1.274000000    -4.815000000    -0.501000000
C     1.178000000    -4.143000000     0.752000000
H     0.948000000    -3.083000000     0.571000000
C    -0.023000000    -4.582000000     1.577000000
C     0.042000000    -4.456000000     2.949000000
H     0.981000000    -4.191000000     3.429000000
C    -1.190000000    -4.962000000     0.892000000
H    -1.330000000    -4.847000000    -0.180000000
C    -2.306000000    -5.233000000     1.685000000
O    -3.515000000    -5.500000000     1.135000000
C    -2.227000000    -5.290000000     3.094000000
H    -3.067000000    -5.522000000     3.744000000
C    -1.066000000    -4.886000000     3.718000000
O    -0.989000000    -4.884000000     5.107000000
C    -0.270000000    -3.967000000     5.844000000
C    -0.704000000    -2.628000000     5.932000000
H    -1.577000000    -2.284000000     5.384000000
C     0.875000000    -4.492000000     6.516000000
H     1.157000000    -5.538000000     6.609000000
C     1.659000000    -3.642000000     7.228000000
H     2.592000000    -4.029000000     7.629000000
C     1.336000000    -2.335000000     7.399000000
H     2.022000000    -1.768000000     8.023000000
C     0.166000000    -1.836000000     6.724000000
O    -0.213000000    -0.444000000     6.890000000
C     0.356000000     0.596000000     6.199000000
C    -0.381000000     1.773000000     6.070000000
H    -1.247000000     1.912000000     6.711000000
C     0.054000000     2.760000000     5.270000000
O    -0.902000000     3.760000000     5.089000000
C    -0.613000000     4.926000000     4.413000000
C    -1.314000000     5.213000000     3.240000000
H    -2.212000000     4.629000000     3.055000000
C     0.534000000     5.687000000     4.775000000
H     1.056000000     5.473000000     5.704000000
C     0.823000000     6.850000000     4.062000000
H     1.669000000     7.469000000     4.350000000
C     0.023000000     7.208000000     2.966000000
H     0.293000000     8.104000000     2.413000000
C    -1.051000000     6.435000000     2.529000000
O    -1.858000000     6.688000000     1.509000000
C    -1.835000000     6.008000000     0.295000000
C    -2.958000000     5.843000000    -0.487000000
H    -3.877000000     6.413000000    -0.374000000
C    -2.891000000     5.018000000    -1.620000000
O    -4.010000000     4.984000000    -2.492000000
C    -4.128000000     4.276000000    -3.631000000
C    -4.576000000     2.944000000    -3.604000000
H    -4.906000000     2.427000000    -2.706000000
C    -3.856000000     4.831000000    -4.887000000
H    -3.481000000     5.845000000    -4.997000000
C    -4.059000000     4.164000000    -6.122000000
H    -3.946000000     4.674000000    -7.075000000
C    -4.545000000     2.879000000    -6.061000000
H    -4.781000000     2.293000000    -6.945000000
C    -4.895000000     2.312000000    -4.824000000
O    -5.328000000     1.008000000    -4.863000000
C    -4.692000000     0.020000000    -4.289000000
C    -5.388000000    -1.074000000    -3.745000000
H    -6.467000000    -1.084000000    -3.874000000
C    -4.621000000    -2.113000000    -3.224000000
O    -5.340000000    -3.128000000    -2.581000000
C    -4.706000000    -4.325000000    -2.092000000
C    -4.515000000    -5.376000000    -2.920000000
H    -4.759000000    -5.354000000    -3.979000000
C    -3.875000000    -6.473000000    -2.406000000
H    -3.678000000    -7.296000000    -3.089000000
C    -3.505000000    -6.494000000    -1.073000000
H    -2.925000000    -7.341000000    -0.716000000
C    -3.731000000    -5.412000000    -0.198000000
C    -4.446000000    -4.398000000    -0.717000000
H    -4.542000000    -3.589000000     0.002000000
C    -3.097000000     0.219000000    -0.172000000
H    -3.870000000     0.772000000    -0.699000000
C    -1.851000000     0.290000000    -0.754000000
H    -1.690000000     0.947000000    -1.605000000
C    -0.735000000    -0.327000000    -0.116000000
H     0.248000000    -0.170000000    -0.481000000
C    -0.961000000    -1.043000000     1.087000000
H    -0.101000000    -1.455000000     1.608000000
C    -2.220000000    -1.224000000     1.572000000
H    -2.490000000    -1.889000000     2.388000000
C    -3.318000000    -0.508000000     0.969000000
C    -4.746000000    -0.713000000     1.386000000
O    -5.016000000    -1.217000000     2.480000000
O    -5.681000000    -0.239000000     0.748000000
O    -5.975000000     4.680000000     0.268000000
H    -6.241000000     4.203000000    -0.518000000
H    -5.458000000     4.048000000     0.768000000
O    -7.153000000    -4.577000000     1.902000000
H    -6.590000000    -3.807000000     1.825000000
H    -7.925000000    -4.364000000     1.378000000
O    -3.585000000    -0.690000000     4.662000000
H    -4.319000000    -1.156000000     5.063000000
H    -3.879000000    -0.501000000     3.771000000
O    -9.633000000    -1.250000000    -0.712000000
H    -9.967000000    -1.555000000     0.132000000
H    -9.929000000    -0.341000000    -0.772000000
O    -4.108000000     4.495000000     4.717000000
H    -4.444000000     4.939000000     3.938000000
H    -3.923000000     3.603000000     4.423000000
O    -8.748000000     2.441000000     0.991000000
H    -8.415000000     1.598000000     1.301000000
H    -8.477000000     3.067000000     1.663000000
O    -7.552000000     2.803000000    -1.632000000
H    -7.604000000     1.897000000    -1.938000000
H    -7.910000000     2.777000000    -0.745000000
O    -8.045000000     0.071000000     2.210000000
H    -8.180000000    -0.744000000     2.693000000
H    -7.201000000    -0.044000000     1.774000000
O    -8.361000000    -2.900000000    -3.048000000
H    -8.796000000    -2.303000000    -2.439000000
H    -7.612000000    -3.238000000    -2.558000000
O    -7.479000000    -2.551000000     0.031000000
H    -8.374000000    -2.256000000    -0.133000000
H    -7.017000000    -1.764000000     0.323000000
O    -7.137000000     0.133000000    -1.479000000
H    -7.874000000    -0.462000000    -1.344000000
H    -6.567000000    -0.016000000    -0.724000000
O    -6.625000000    -2.011000000     4.204000000
H    -6.301000000    -1.758000000     5.069000000
H    -5.889000000    -1.846000000     3.615000000
O    -4.747000000     2.375000000     1.708000000
H    -3.880000000     2.382000000     2.112000000
H    -4.796000000     1.530000000     1.261000000
O    -6.069000000     1.704000000     4.218000000
H    -5.719000000     2.234000000     3.501000000
H    -6.733000000     1.152000000     3.807000000
O    -3.140000000    -0.482000000     7.525000000
H    -3.108000000    -0.184000000     6.616000000
H    -4.024000000    -0.833000000     7.631000000
O    -2.765000000     1.971000000     3.562000000
H    -2.853000000     1.102000000     3.953000000
H    -1.895000000     2.267000000     3.829000000
O    -5.660000000    -6.100000000     3.766000000
H    -6.080000000    -5.749000000     2.981000000
H    -6.363000000    -6.554000000     4.231000000
O    -8.935000000    -2.898000000     4.859000000
H    -9.162000000    -3.760000000     4.510000000
H    -8.072000000    -2.710000000     4.491000000
O    -7.930000000    -5.472000000    -1.534000000
H    -7.365000000    -4.980000000    -0.939000000
H    -8.817000000    -5.301000000    -1.218000000
