215
-1453.13667
C     0.549000000     1.954000000     4.672000000
H     0.859000000     2.758000000     4.010000000
C     1.248000000     0.747000000     4.667000000
C     0.876000000    -0.278000000     5.537000000
H     1.230000000    -1.277000000     5.293000000
C     2.319000000     0.443000000     3.630000000
O     3.107000000     1.617000000     3.237000000
H     1.832000000     0.079000000     2.714000000
O     3.278000000    -0.604000000     3.967000000
C     3.561000000    -1.638000000     3.074000000
C     2.760000000    -2.768000000     3.133000000
H     2.087000000    -2.933000000     3.971000000
C     2.718000000    -3.598000000     2.039000000
O     1.632000000    -4.539000000     1.959000000
C     3.516000000    -3.365000000     0.995000000
C     3.556000000    -4.309000000    -0.234000000
H     4.589000000    -4.230000000    -0.578000000
C     2.586000000    -3.843000000    -1.299000000
C     3.095000000    -3.004000000    -2.322000000
H     4.109000000    -2.659000000    -2.135000000
H     3.301000000    -5.338000000     0.029000000
C     4.344000000    -2.222000000     0.923000000
H     4.844000000    -1.915000000     0.008000000
C     4.400000000    -1.372000000     2.053000000
C     5.140000000    -0.042000000     2.061000000
H     6.137000000    -0.296000000     1.695000000
H     5.341000000     0.303000000     3.077000000
C     4.516000000     1.118000000     1.323000000
C     4.822000000     1.316000000    -0.041000000
H     5.617000000     0.731000000    -0.497000000
C     3.461000000     1.760000000     1.935000000
C     2.708000000     2.697000000     1.264000000
H     1.880000000     3.199000000     1.758000000
C     3.100000000     3.019000000    -0.039000000
O     2.294000000     3.889000000    -0.727000000
C     1.339000000     3.493000000    -1.732000000
C     0.016000000     4.239000000    -1.563000000
C    -0.768000000     4.740000000    -2.649000000
H    -0.365000000     4.611000000    -3.650000000
C    -0.557000000     4.416000000    -0.254000000
H    -0.039000000     4.092000000     0.645000000
O     1.897000000     3.637000000    -3.041000000
H     1.112000000     2.434000000    -1.536000000
C     4.165000000     2.326000000    -0.689000000
C     4.458000000     2.581000000    -2.180000000
H     5.515000000     2.415000000    -2.398000000
H     4.277000000     3.649000000    -2.316000000
C     3.540000000     1.890000000    -3.161000000
C     3.748000000     0.509000000    -3.411000000
H     4.637000000    -0.030000000    -3.094000000
C     2.436000000     2.537000000    -3.657000000
C     1.498000000     1.876000000    -4.407000000
H     0.534000000     2.304000000    -4.670000000
C     1.698000000     0.528000000    -4.752000000
O     0.653000000    -0.214000000    -5.290000000
C    -0.132000000    -0.863000000    -4.212000000
C    -1.590000000    -0.345000000    -4.193000000
C    -2.004000000     0.675000000    -5.069000000
H    -1.256000000     1.226000000    -5.633000000
C    -2.447000000    -0.949000000    -3.231000000
H    -2.117000000    -1.738000000    -2.559000000
O     0.060000000    -2.324000000    -4.227000000
H     0.309000000    -0.596000000    -3.241000000
C     2.821000000    -0.156000000    -4.214000000
C     2.867000000    -1.688000000    -4.483000000
H     3.900000000    -2.004000000    -4.649000000
H     2.270000000    -1.958000000    -5.357000000
C     2.316000000    -2.526000000    -3.336000000
C     0.958000000    -2.823000000    -3.283000000
C     0.408000000    -3.681000000    -2.348000000
H    -0.638000000    -3.935000000    -2.499000000
C     1.243000000    -4.194000000    -1.270000000
O     0.696000000    -5.019000000    -0.288000000
C     0.574000000    -4.304000000     1.030000000
H     0.677000000    -3.260000000     0.700000000
C    -0.773000000    -4.545000000     1.603000000
C    -0.856000000    -4.512000000     3.022000000
H     0.034000000    -4.437000000     3.642000000
C    -1.935000000    -4.524000000     0.826000000
H    -1.887000000    -4.448000000    -0.258000000
C    -3.192000000    -4.614000000     1.441000000
O    -4.370000000    -4.675000000     0.715000000
C    -3.227000000    -4.758000000     2.824000000
H    -4.182000000    -5.065000000     3.242000000
C    -2.084000000    -4.619000000     3.618000000
O    -2.228000000    -4.811000000     4.960000000
C    -1.354000000    -4.330000000     5.867000000
C    -1.276000000    -2.917000000     6.002000000
H    -1.867000000    -2.189000000     5.451000000
C    -0.642000000    -5.288000000     6.666000000
H    -0.642000000    -6.372000000     6.581000000
C     0.188000000    -4.756000000     7.689000000
H     0.718000000    -5.479000000     8.304000000
C     0.272000000    -3.355000000     7.857000000
H     0.936000000    -2.978000000     8.631000000
C    -0.472000000    -2.441000000     6.994000000
O    -0.538000000    -1.098000000     7.333000000
C    -0.138000000    -0.086000000     6.501000000
C    -0.786000000     1.127000000     6.524000000
H    -1.617000000     1.266000000     7.210000000
C    -0.475000000     2.131000000     5.583000000
O    -1.129000000     3.321000000     5.609000000
C    -1.029000000     4.278000000     4.554000000
C    -1.762000000     4.090000000     3.405000000
H    -2.339000000     3.195000000     3.190000000
C    -0.321000000     5.446000000     4.627000000
H     0.106000000     5.705000000     5.592000000
C    -0.226000000     6.424000000     3.574000000
H     0.217000000     7.404000000     3.730000000
C    -1.108000000     6.199000000     2.449000000
H    -1.048000000     6.834000000     1.568000000
C    -1.837000000     4.996000000     2.346000000
O    -2.472000000     4.734000000     1.087000000
C    -1.864000000     4.877000000    -0.137000000
C    -2.544000000     5.402000000    -1.244000000
H    -3.578000000     5.715000000    -1.132000000
C    -1.946000000     5.489000000    -2.472000000
O    -2.604000000     6.067000000    -3.556000000
C    -2.921000000     5.365000000    -4.685000000
C    -3.171000000     3.976000000    -4.670000000
H    -3.019000000     3.383000000    -3.772000000
C    -3.008000000     6.067000000    -5.899000000
H    -2.755000000     7.123000000    -5.936000000
C    -3.415000000     5.512000000    -7.033000000
H    -3.604000000     6.203000000    -7.850000000
C    -3.658000000     4.182000000    -7.074000000
H    -3.920000000     3.763000000    -8.043000000
C    -3.521000000     3.388000000    -5.961000000
O    -3.819000000     1.966000000    -6.029000000
C    -3.334000000     1.063000000    -5.104000000
C    -4.231000000     0.419000000    -4.231000000
H    -5.308000000     0.485000000    -4.362000000
C    -3.777000000    -0.511000000    -3.281000000
O    -4.711000000    -1.150000000    -2.410000000
C    -4.457000000    -2.529000000    -2.128000000
C    -4.361000000    -3.432000000    -3.169000000
H    -4.353000000    -3.040000000    -4.183000000
C    -4.369000000    -4.830000000    -2.913000000
H    -4.230000000    -5.520000000    -3.742000000
C    -4.389000000    -5.278000000    -1.613000000
H    -4.215000000    -6.332000000    -1.410000000
C    -4.518000000    -4.358000000    -0.618000000
C    -4.587000000    -2.958000000    -0.836000000
H    -4.552000000    -2.280000000     0.013000000
C    -1.643000000     0.568000000    -0.379000000
H    -2.045000000     1.275000000    -1.100000000
C    -0.270000000     0.216000000    -0.627000000
H     0.118000000     0.587000000    -1.572000000
C     0.451000000    -0.475000000     0.354000000
H     1.492000000    -0.883000000     0.186000000
C    -0.218000000    -1.029000000     1.460000000
H     0.299000000    -1.761000000     2.075000000
C    -1.569000000    -0.729000000     1.677000000
H    -2.033000000    -1.151000000     2.565000000
C    -2.326000000     0.013000000     0.722000000
C    -3.706000000     0.565000000     1.026000000
O    -4.403000000     0.061000000     1.944000000
O    -4.139000000     1.424000000     0.321000000
O    -6.980000000     5.150000000     2.560000000
H    -7.610000000     4.430000000     2.549000000
H    -6.297000000     4.880000000     1.946000000
O    -7.394000000    -4.931000000     2.398000000
H    -6.730000000    -4.259000000     2.244000000
H    -8.010000000    -4.829000000     1.673000000
O    -5.027000000     2.283000000     3.292000000
H    -5.125000000     3.026000000     2.696000000
H    -4.909000000     1.528000000     2.716000000
O    -8.020000000     0.038000000     2.289000000
H    -7.671000000    -0.598000000     2.913000000
H    -7.353000000     0.723000000     2.246000000
O    -9.852000000    -0.182000000     4.639000000
H    -9.226000000    -0.167000000     3.915000000
H   -10.409000000    -0.938000000     4.458000000
O    -5.378000000     3.259000000    -1.997000000
H    -6.205000000     2.890000000    -1.688000000
H    -4.704000000     2.743000000    -1.553000000
O    -5.662000000    -2.338000000     2.294000000
H    -6.120000000    -2.132000000     3.109000000
H    -4.995000000    -1.656000000     2.216000000
O    -4.617000000     0.117000000     6.619000000
H    -3.943000000     0.166000000     5.940000000
H    -4.765000000     1.027000000     6.875000000
O    -3.226000000     0.217000000     4.368000000
H    -3.298000000     1.171000000     4.392000000
H    -3.339000000    -0.008000000     3.444000000
O    -6.337000000     0.449000000    -0.945000000
H    -5.894000000     0.392000000    -0.098000000
H    -5.812000000    -0.102000000    -1.527000000
O    -4.827000000     3.280000000     6.185000000
H    -5.022000000     2.933000000     5.314000000
H    -4.519000000     4.172000000     6.024000000
O    -8.100000000     4.275000000    -0.669000000
H    -8.821000000     4.874000000    -0.860000000
H    -8.402000000     3.767000000     0.084000000
O    -7.722000000    -2.225000000     0.324000000
H    -7.988000000    -1.374000000     0.674000000
H    -6.865000000    -2.388000000     0.717000000
O    -8.623000000     3.057000000     1.590000000
H    -9.031000000     2.941000000     2.448000000
H    -8.481000000     2.166000000     1.270000000
O    -5.205000000     3.793000000     0.973000000
H    -4.407000000     4.301000000     1.118000000
H    -4.896000000     2.956000000     0.626000000
O    -7.102000000    -1.299000000     4.514000000
H    -7.578000000    -1.779000000     5.191000000
H    -6.439000000    -0.802000000     4.993000000
O    -8.813000000     2.191000000    -2.282000000
H    -8.465000000     1.461000000    -1.770000000
H    -8.530000000     2.973000000    -1.809000000
O    -7.940000000     2.852000000     4.559000000
H    -6.988000000     2.947000000     4.513000000
H    -8.077000000     1.964000000     4.889000000
O    -8.040000000    -3.409000000    -2.529000000
H    -7.714000000    -3.064000000    -1.698000000
H    -8.459000000    -4.238000000    -2.297000000
