215
-1461.53784
C    -0.438000000     1.789000000     3.929000000
H    -0.154000000     2.538000000     3.194000000
C     0.391000000     0.670000000     4.180000000
C    -0.028000000    -0.278000000     5.069000000
H     0.487000000    -1.215000000     5.261000000
C     1.719000000     0.580000000     3.460000000
O     2.354000000     1.831000000     3.332000000
H     1.540000000     0.235000000     2.431000000
O     2.703000000    -0.301000000     4.081000000
C     3.359000000    -1.189000000     3.283000000
C     2.758000000    -2.394000000     3.163000000
H     1.912000000    -2.625000000     3.806000000
C     3.072000000    -3.273000000     2.108000000
O     2.326000000    -4.375000000     1.893000000
C     4.018000000    -2.965000000     1.143000000
C     4.372000000    -3.810000000    -0.038000000
H     5.418000000    -3.639000000    -0.303000000
C     3.383000000    -3.551000000    -1.180000000
C     3.789000000    -2.795000000    -2.250000000
H     4.830000000    -2.505000000    -2.361000000
H     4.404000000    -4.864000000     0.243000000
C     4.583000000    -1.678000000     1.315000000
H     5.153000000    -1.340000000     0.453000000
C     4.266000000    -0.785000000     2.319000000
C     4.845000000     0.658000000     2.424000000
H     5.899000000     0.749000000     2.153000000
H     4.938000000     0.912000000     3.482000000
C     4.111000000     1.670000000     1.610000000
C     4.396000000     1.892000000     0.276000000
H     5.154000000     1.246000000    -0.161000000
C     2.932000000     2.205000000     2.125000000
C     2.213000000     3.114000000     1.299000000
H     1.288000000     3.567000000     1.646000000
C     2.655000000     3.478000000     0.091000000
O     1.907000000     4.445000000    -0.529000000
C     0.991000000     3.949000000    -1.523000000
C    -0.296000000     4.773000000    -1.448000000
C    -1.244000000     4.730000000    -2.494000000
H    -0.953000000     4.165000000    -3.376000000
C    -0.709000000     5.344000000    -0.220000000
H    -0.101000000     5.185000000     0.667000000
O     1.583000000     3.922000000    -2.845000000
H     0.812000000     2.904000000    -1.234000000
C     3.705000000     2.788000000    -0.479000000
C     4.174000000     3.052000000    -1.904000000
H     5.242000000     2.868000000    -2.039000000
H     4.127000000     4.139000000    -1.997000000
C     3.360000000     2.290000000    -2.959000000
C     3.747000000     0.976000000    -3.211000000
H     4.711000000     0.703000000    -2.788000000
C     2.132000000     2.777000000    -3.392000000
C     1.414000000     1.905000000    -4.213000000
H     0.437000000     2.253000000    -4.540000000
C     1.806000000     0.610000000    -4.579000000
O     0.739000000    -0.141000000    -5.114000000
C     0.091000000    -0.993000000    -4.138000000
C    -1.385000000    -0.925000000    -4.306000000
C    -1.973000000     0.042000000    -5.110000000
H    -1.284000000     0.711000000    -5.620000000
C    -2.173000000    -1.571000000    -3.409000000
H    -1.714000000    -2.318000000    -2.766000000
O     0.601000000    -2.361000000    -4.144000000
H     0.327000000    -0.628000000    -3.127000000
C     2.989000000     0.113000000    -3.978000000
C     3.390000000    -1.334000000    -4.228000000
H     4.477000000    -1.401000000    -4.140000000
H     3.048000000    -1.558000000    -5.240000000
C     2.913000000    -2.362000000    -3.251000000
C     1.544000000    -2.770000000    -3.199000000
C     1.178000000    -3.698000000    -2.206000000
H     0.185000000    -4.130000000    -2.111000000
C     2.096000000    -4.075000000    -1.224000000
O     1.583000000    -4.878000000    -0.229000000
C     1.235000000    -4.182000000     0.983000000
H     1.119000000    -3.139000000     0.655000000
C    -0.132000000    -4.656000000     1.473000000
C    -0.426000000    -4.665000000     2.839000000
H     0.352000000    -4.347000000     3.529000000
C    -1.144000000    -5.015000000     0.633000000
H    -1.019000000    -4.968000000    -0.446000000
C    -2.344000000    -5.489000000     1.136000000
O    -3.328000000    -5.949000000     0.294000000
C    -2.550000000    -5.631000000     2.537000000
H    -3.472000000    -6.102000000     2.867000000
C    -1.627000000    -5.045000000     3.369000000
O    -1.866000000    -5.166000000     4.650000000
C    -1.374000000    -4.331000000     5.680000000
C    -1.684000000    -3.002000000     5.720000000
H    -2.371000000    -2.569000000     4.997000000
C    -0.456000000    -4.842000000     6.603000000
H    -0.082000000    -5.859000000     6.521000000
C     0.010000000    -4.001000000     7.673000000
H     0.619000000    -4.390000000     8.485000000
C    -0.414000000    -2.665000000     7.708000000
H     0.016000000    -1.992000000     8.446000000
C    -1.287000000    -2.216000000     6.757000000
O    -1.626000000    -0.875000000     6.826000000
C    -1.265000000    -0.098000000     5.761000000
C    -2.096000000     1.003000000     5.441000000
H    -3.093000000     1.216000000     5.817000000
C    -1.700000000     1.934000000     4.525000000
O    -2.512000000     3.055000000     4.362000000
C    -2.051000000     4.262000000     3.990000000
C    -2.397000000     4.770000000     2.713000000
H    -2.874000000     4.076000000     2.025000000
C    -1.497000000     5.117000000     4.944000000
H    -1.272000000     4.679000000     5.913000000
C    -1.230000000     6.432000000     4.671000000
H    -0.637000000     7.011000000     5.374000000
C    -1.423000000     6.887000000     3.352000000
H    -0.990000000     7.843000000     3.072000000
C    -2.039000000     6.106000000     2.397000000
O    -2.286000000     6.587000000     1.131000000
C    -1.992000000     5.961000000    -0.053000000
C    -2.810000000     6.115000000    -1.200000000
H    -3.689000000     6.754000000    -1.225000000
C    -2.468000000     5.420000000    -2.360000000
O    -3.430000000     5.446000000    -3.339000000
C    -3.125000000     4.739000000    -4.455000000
C    -3.431000000     3.368000000    -4.424000000
H    -3.761000000     2.770000000    -3.578000000
C    -2.695000000     5.342000000    -5.590000000
H    -2.476000000     6.407000000    -5.581000000
C    -2.607000000     4.582000000    -6.794000000
H    -2.411000000     5.000000000    -7.778000000
C    -2.977000000     3.238000000    -6.791000000
H    -2.850000000     2.653000000    -7.699000000
C    -3.390000000     2.628000000    -5.632000000
O    -3.905000000     1.314000000    -5.795000000
C    -3.375000000     0.193000000    -5.128000000
C    -4.129000000    -0.626000000    -4.360000000
H    -5.208000000    -0.499000000    -4.385000000
C    -3.560000000    -1.530000000    -3.421000000
O    -4.331000000    -2.184000000    -2.494000000
C    -4.099000000    -3.530000000    -2.345000000
C    -3.905000000    -4.309000000    -3.510000000
H    -3.872000000    -3.910000000    -4.520000000
C    -3.466000000    -5.630000000    -3.382000000
H    -3.133000000    -6.211000000    -4.238000000
C    -3.335000000    -6.185000000    -2.080000000
H    -2.879000000    -7.166000000    -1.981000000
C    -3.557000000    -5.395000000    -0.921000000
C    -3.985000000    -4.068000000    -1.059000000
H    -4.058000000    -3.562000000    -0.100000000
C    -2.350000000     1.004000000    -0.997000000
H    -3.023000000     1.540000000    -1.661000000
C    -1.004000000     0.889000000    -1.279000000
H    -0.591000000     1.295000000    -2.199000000
C    -0.218000000     0.028000000    -0.521000000
H     0.782000000    -0.087000000    -0.815000000
C    -0.710000000    -0.575000000     0.561000000
H    -0.082000000    -1.289000000     1.089000000
C    -2.037000000    -0.440000000     0.878000000
H    -2.438000000    -0.939000000     1.756000000
C    -2.867000000     0.378000000     0.164000000
C    -4.369000000     0.407000000     0.619000000
O    -4.740000000    -0.286000000     1.561000000
O    -5.133000000     1.091000000     0.060000000
O    -7.789000000     4.769000000     4.039000000
H    -8.172000000     4.962000000     3.183000000
H    -7.526000000     3.851000000     3.982000000
O    -6.081000000    -5.959000000     3.260000000
H    -5.681000000    -5.119000000     3.033000000
H    -6.904000000    -5.724000000     3.689000000
O    -5.245000000     2.974000000     4.190000000
H    -4.304000000     3.149000000     4.227000000
H    -5.543000000     3.435000000     3.406000000
O    -7.530000000     0.173000000     0.728000000
H    -7.215000000    -0.394000000     1.432000000
H    -6.739000000     0.585000000     0.381000000
O   -10.461000000    -0.995000000     2.674000000
H    -9.541000000    -1.084000000     2.923000000
H   -10.882000000    -1.779000000     3.025000000
O    -6.052000000     3.017000000    -1.619000000
H    -6.443000000     3.556000000    -0.932000000
H    -5.608000000     2.312000000    -1.147000000
O    -6.158000000     4.254000000    -4.122000000
H    -6.192000000     3.849000000    -3.256000000
H    -6.950000000     4.790000000    -4.168000000
O    -7.880000000    -1.415000000     3.669000000
H    -7.526000000    -2.178000000     3.212000000
H    -7.110000000    -0.962000000     4.012000000
O    -5.304000000    -2.776000000     3.056000000
H    -5.302000000    -1.939000000     2.591000000
H    -4.709000000    -2.640000000     3.794000000
O    -5.035000000    -1.523000000     5.902000000
H    -4.998000000    -0.824000000     5.249000000
H    -4.884000000    -1.080000000     6.737000000
O    -5.617000000     0.330000000     4.045000000
H    -5.605000000     1.284000000     4.129000000
H    -5.134000000     0.155000000     3.237000000
O    -6.888000000    -1.023000000    -2.236000000
H    -5.993000000    -1.362000000    -2.209000000
H    -7.300000000    -1.492000000    -2.962000000
O    -5.186000000     0.649000000     7.508000000
H    -5.970000000     0.551000000     8.049000000
H    -5.514000000     0.961000000     6.665000000
O    -8.365000000     3.633000000     0.424000000
H    -9.076000000     3.833000000    -0.184000000
H    -8.776000000     3.104000000     1.108000000
O    -9.077000000    -1.736000000    -0.636000000
H    -8.150000000    -1.538000000    -0.766000000
H    -9.430000000    -0.959000000    -0.201000000
O    -8.104000000     2.183000000     2.731000000
H    -9.042000000     2.265000000     2.558000000
H    -7.788000000     1.581000000     2.057000000
O    -5.373000000     3.682000000     1.524000000
H    -6.284000000     3.760000000     1.241000000
H    -5.056000000     2.888000000     1.094000000
O    -8.663000000     1.121000000    -2.212000000
H    -7.932000000     1.663000000    -2.507000000
H    -8.259000000     0.455000000    -1.655000000
O    -7.182000000     2.223000000     5.871000000
H    -7.766000000     1.656000000     5.368000000
H    -6.596000000     2.603000000     5.216000000
