215
-1432.86987
C    -0.121000000     1.879000000     4.456000000
H     0.210000000     2.588000000     3.701000000
C     0.691000000     0.763000000     4.624000000
C     0.170000000    -0.355000000     5.329000000
H     0.734000000    -1.284000000     5.351000000
C     1.980000000     0.558000000     3.759000000
O     2.844000000     1.754000000     3.666000000
H     1.707000000     0.264000000     2.735000000
O     2.927000000    -0.432000000     4.208000000
C     3.259000000    -1.255000000     3.182000000
C     2.454000000    -2.420000000     2.994000000
H     1.694000000    -2.627000000     3.743000000
C     2.676000000    -3.252000000     1.905000000
O     1.866000000    -4.344000000     1.800000000
C     3.752000000    -3.017000000     1.043000000
C     3.979000000    -3.944000000    -0.116000000
H     4.981000000    -3.982000000    -0.549000000
C     3.082000000    -3.586000000    -1.311000000
C     3.545000000    -2.652000000    -2.241000000
H     4.578000000    -2.328000000    -2.154000000
H     3.822000000    -4.911000000     0.365000000
C     4.521000000    -1.868000000     1.199000000
H     5.146000000    -1.576000000     0.359000000
C     4.330000000    -1.001000000     2.291000000
C     5.109000000     0.247000000     2.512000000
H     6.070000000     0.196000000     1.994000000
H     5.318000000     0.358000000     3.578000000
C     4.406000000     1.388000000     1.812000000
C     4.825000000     1.685000000     0.493000000
H     5.616000000     1.141000000    -0.017000000
C     3.389000000     2.093000000     2.442000000
C     2.748000000     3.046000000     1.700000000
H     1.990000000     3.647000000     2.195000000
C     2.994000000     3.301000000     0.305000000
O     2.260000000     4.259000000    -0.427000000
C     1.267000000     3.764000000    -1.402000000
C    -0.003000000     4.498000000    -1.349000000
C    -0.676000000     4.871000000    -2.537000000
H    -0.133000000     4.882000000    -3.479000000
C    -0.535000000     4.644000000    -0.087000000
H    -0.145000000     4.312000000     0.872000000
O     1.841000000     3.901000000    -2.727000000
H     0.976000000     2.742000000    -1.118000000
C     4.090000000     2.637000000    -0.231000000
C     4.435000000     2.837000000    -1.673000000
H     5.453000000     2.518000000    -1.906000000
H     4.302000000     3.901000000    -1.880000000
C     3.540000000     2.187000000    -2.657000000
C     3.925000000     0.938000000    -3.147000000
H     4.869000000     0.616000000    -2.715000000
C     2.361000000     2.777000000    -3.227000000
C     1.586000000     2.118000000    -4.156000000
H     0.661000000     2.580000000    -4.490000000
C     1.932000000     0.796000000    -4.398000000
O     0.967000000     0.157000000    -5.006000000
C     0.230000000    -0.697000000    -4.070000000
C    -1.217000000    -0.523000000    -4.167000000
C    -1.822000000     0.575000000    -4.843000000
H    -1.168000000     1.273000000    -5.358000000
C    -2.100000000    -1.329000000    -3.407000000
H    -1.613000000    -2.144000000    -2.877000000
O     0.617000000    -2.043000000    -4.359000000
H     0.518000000    -0.383000000    -3.056000000
C     3.080000000     0.174000000    -3.990000000
C     3.363000000    -1.212000000    -4.374000000
H     4.438000000    -1.310000000    -4.537000000
H     2.764000000    -1.437000000    -5.259000000
C     2.801000000    -2.214000000    -3.335000000
C     1.461000000    -2.610000000    -3.447000000
C     0.910000000    -3.517000000    -2.527000000
H    -0.105000000    -3.859000000    -2.715000000
C     1.704000000    -3.948000000    -1.435000000
O     1.029000000    -4.587000000    -0.445000000
C     0.739000000    -4.152000000     0.935000000
H     0.545000000    -3.070000000     0.889000000
C    -0.525000000    -4.734000000     1.382000000
C    -0.824000000    -4.860000000     2.768000000
H    -0.116000000    -4.518000000     3.518000000
C    -1.595000000    -4.959000000     0.508000000
H    -1.353000000    -4.841000000    -0.545000000
C    -2.867000000    -5.301000000     0.988000000
O    -3.895000000    -5.565000000     0.154000000
C    -3.080000000    -5.504000000     2.299000000
H    -4.064000000    -5.800000000     2.652000000
C    -2.048000000    -5.232000000     3.223000000
O    -2.465000000    -5.171000000     4.592000000
C    -1.750000000    -4.501000000     5.511000000
C    -1.924000000    -3.134000000     5.648000000
H    -2.609000000    -2.628000000     4.973000000
C    -1.005000000    -5.232000000     6.441000000
H    -1.104000000    -6.314000000     6.409000000
C    -0.355000000    -4.587000000     7.498000000
H     0.321000000    -5.149000000     8.138000000
C    -0.585000000    -3.224000000     7.635000000
H    -0.206000000    -2.693000000     8.504000000
C    -1.351000000    -2.463000000     6.731000000
O    -1.451000000    -1.075000000     6.953000000
C    -1.033000000    -0.184000000     5.995000000
C    -1.784000000     1.001000000     5.944000000
H    -2.769000000     1.046000000     6.402000000
C    -1.296000000     2.042000000     5.154000000
O    -2.053000000     3.232000000     5.077000000
C    -1.585000000     4.239000000     4.288000000
C    -2.334000000     4.411000000     3.087000000
H    -3.146000000     3.711000000     2.909000000
C    -0.707000000     5.203000000     4.681000000
H    -0.189000000     5.129000000     5.634000000
C    -0.392000000     6.306000000     3.869000000
H     0.375000000     7.020000000     4.160000000
C    -1.040000000     6.378000000     2.623000000
H    -0.746000000     7.236000000     2.025000000
C    -2.058000000     5.511000000     2.271000000
O    -2.574000000     5.504000000     1.073000000
C    -1.892000000     5.148000000    -0.065000000
C    -2.627000000     5.418000000    -1.215000000
H    -3.600000000     5.901000000    -1.211000000
C    -1.940000000     5.361000000    -2.409000000
O    -2.676000000     5.801000000    -3.463000000
C    -2.650000000     5.033000000    -4.604000000
C    -3.097000000     3.733000000    -4.504000000
H    -3.325000000     3.230000000    -3.568000000
C    -2.493000000     5.642000000    -5.819000000
H    -2.233000000     6.694000000    -5.745000000
C    -2.586000000     4.902000000    -6.953000000
H    -2.434000000     5.431000000    -7.890000000
C    -3.079000000     3.599000000    -6.950000000
H    -3.210000000     3.028000000    -7.866000000
C    -3.287000000     3.025000000    -5.695000000
O    -3.776000000     1.825000000    -5.601000000
C    -3.227000000     0.777000000    -4.846000000
C    -4.038000000    -0.047000000    -4.092000000
H    -5.102000000     0.175000000    -4.095000000
C    -3.509000000    -1.107000000    -3.399000000
O    -4.342000000    -1.843000000    -2.710000000
C    -4.283000000    -3.163000000    -2.595000000
C    -4.491000000    -4.046000000    -3.656000000
H    -4.743000000    -3.681000000    -4.648000000
C    -4.482000000    -5.411000000    -3.461000000
H    -4.711000000    -6.092000000    -4.277000000
C    -4.200000000    -5.948000000    -2.193000000
H    -4.147000000    -7.015000000    -1.990000000
C    -4.033000000    -5.044000000    -1.100000000
C    -4.044000000    -3.673000000    -1.317000000
H    -3.998000000    -2.948000000    -0.509000000
C    -2.204000000     1.051000000    -0.212000000
H    -2.766000000     1.488000000    -1.033000000
C    -0.837000000     0.697000000    -0.334000000
H    -0.246000000     0.969000000    -1.205000000
C    -0.243000000    -0.061000000     0.629000000
H     0.812000000    -0.278000000     0.555000000
C    -0.969000000    -0.553000000     1.722000000
H    -0.401000000    -1.205000000     2.381000000
C    -2.264000000    -0.092000000     1.939000000
H    -2.685000000    -0.444000000     2.877000000
C    -2.952000000     0.600000000     0.902000000
C    -4.469000000     0.791000000     0.957000000
O    -5.152000000     0.118000000     1.687000000
O    -5.010000000     1.491000000     0.075000000
O    -7.105000000     5.760000000     2.421000000
H    -7.996000000     5.502000000     2.659000000
H    -6.832000000     5.108000000     1.775000000
O    -6.216000000     0.535000000     4.426000000
H    -6.251000000    -0.422000000     4.398000000
H    -5.879000000     0.788000000     3.567000000
O   -10.903000000     0.727000000     1.121000000
H   -11.355000000     0.243000000     1.811000000
H    -9.977000000     0.518000000     1.249000000
O    -5.421000000     2.630000000    -2.112000000
H    -5.253000000     2.011000000    -1.401000000
H    -5.771000000     3.406000000    -1.675000000
O    -6.301000000     4.963000000    -3.849000000
H    -5.727000000     4.303000000    -3.459000000
H    -5.792000000     5.324000000    -4.575000000
O    -8.102000000     0.243000000     1.181000000
H    -8.273000000     0.997000000     1.745000000
H    -7.203000000    -0.012000000     1.389000000
O    -6.479000000    -2.054000000     4.197000000
H    -6.483000000    -2.090000000     3.240000000
H    -6.373000000    -2.965000000     4.471000000
O    -6.317000000    -2.285000000     1.338000000
H    -6.770000000    -2.046000000     0.529000000
H    -5.631000000    -1.624000000     1.433000000
O    -5.933000000     6.741000000    -0.431000000
H    -6.626000000     6.605000000    -1.076000000
H    -5.773000000     5.871000000    -0.064000000
O    -6.236000000    -0.610000000    -1.157000000
H    -5.865000000     0.143000000    -0.697000000
H    -5.675000000    -0.723000000    -1.923000000
O    -9.310000000     3.747000000    -1.390000000
H    -9.620000000     4.110000000    -2.219000000
H    -9.726000000     4.289000000    -0.720000000
O    -9.292000000    -1.491000000    -0.352000000
H    -9.543000000    -0.896000000    -1.059000000
H    -8.864000000    -0.929000000     0.293000000
O    -5.684000000     4.005000000     0.373000000
H    -4.761000000     4.186000000     0.552000000
H    -5.721000000     3.058000000     0.237000000
O    -9.843000000     1.870000000     3.448000000
H   -10.751000000     1.782000000     3.160000000
H    -9.881000000     1.760000000     4.398000000
O    -8.925000000     0.859000000    -2.033000000
H    -8.235000000     0.479000000    -1.489000000
H    -8.925000000     1.789000000    -1.806000000
O    -6.945000000     6.045000000     5.098000000
H    -6.750000000     5.614000000     4.266000000
H    -7.582000000     5.471000000     5.522000000
O    -6.342000000     1.496000000     6.937000000
H    -6.613000000     1.233000000     6.058000000
H    -5.536000000     1.995000000     6.801000000
O    -7.811000000    -2.047000000    -3.346000000
H    -7.242000000    -2.117000000    -2.580000000
H    -7.686000000    -2.872000000    -3.814000000
O    -6.865000000    -4.945000000     0.399000000
H    -7.169000000    -4.075000000     0.656000000
H    -6.554000000    -4.834000000    -0.499000000
