215
-1422.59230
C     1.629000000     2.289000000     4.493000000
H     2.309000000     3.023000000     4.069000000
C     1.669000000     0.940000000     4.241000000
C     0.787000000     0.060000000     4.837000000
H     0.720000000    -1.004000000     4.624000000
C     2.838000000     0.485000000     3.306000000
O     3.838000000     1.527000000     3.095000000
H     2.372000000     0.346000000     2.319000000
O     3.460000000    -0.724000000     3.693000000
C     3.472000000    -1.738000000     2.774000000
C     2.512000000    -2.735000000     2.743000000
H     1.797000000    -2.712000000     3.561000000
C     2.393000000    -3.616000000     1.666000000
O     1.324000000    -4.527000000     1.724000000
C     3.291000000    -3.692000000     0.650000000
C     3.294000000    -4.684000000    -0.489000000
H     4.312000000    -4.753000000    -0.878000000
C     2.281000000    -4.144000000    -1.531000000
C     2.735000000    -3.433000000    -2.663000000
H     3.723000000    -2.984000000    -2.714000000
H     2.970000000    -5.680000000    -0.181000000
C     4.288000000    -2.698000000     0.681000000
H     4.883000000    -2.503000000    -0.208000000
C     4.430000000    -1.758000000     1.756000000
C     5.408000000    -0.603000000     1.687000000
H     6.326000000    -0.826000000     1.139000000
H     5.785000000    -0.168000000     2.615000000
C     4.754000000     0.659000000     1.048000000
C     4.852000000     0.794000000    -0.324000000
H     5.368000000     0.050000000    -0.926000000
C     4.173000000     1.707000000     1.767000000
C     3.611000000     2.752000000     1.129000000
H     3.061000000     3.509000000     1.682000000
C     3.654000000     2.890000000    -0.274000000
O     2.802000000     3.842000000    -0.722000000
C     1.577000000     3.491000000    -1.389000000
C     0.439000000     4.429000000    -1.036000000
C    -0.422000000     4.892000000    -2.040000000
H    -0.419000000     4.679000000    -3.106000000
C     0.296000000     4.878000000     0.286000000
H     1.057000000     4.609000000     1.015000000
O     1.834000000     3.376000000    -2.806000000
H     1.420000000     2.464000000    -1.026000000
C     4.277000000     1.891000000    -1.025000000
C     4.409000000     2.010000000    -2.579000000
H     5.287000000     1.469000000    -2.936000000
H     4.483000000     3.024000000    -2.978000000
C     3.175000000     1.421000000    -3.165000000
C     3.313000000     0.117000000    -3.666000000
H     4.265000000    -0.399000000    -3.566000000
C     2.024000000     2.168000000    -3.273000000
C     0.927000000     1.562000000    -3.889000000
H     0.057000000     2.205000000    -3.990000000
C     0.996000000     0.270000000    -4.363000000
O    -0.130000000    -0.296000000    -4.871000000
C    -0.867000000    -1.075000000    -3.987000000
C    -2.354000000    -0.748000000    -4.153000000
C    -2.720000000     0.584000000    -4.320000000
H    -1.991000000     1.384000000    -4.219000000
C    -3.312000000    -1.694000000    -3.873000000
H    -3.002000000    -2.691000000    -3.572000000
O    -0.588000000    -2.487000000    -4.128000000
H    -0.656000000    -0.889000000    -2.924000000
C     2.207000000    -0.520000000    -4.185000000
C     2.297000000    -1.943000000    -4.671000000
H     3.320000000    -2.145000000    -4.994000000
H     1.635000000    -2.014000000    -5.537000000
C     1.796000000    -2.911000000    -3.566000000
C     0.423000000    -3.173000000    -3.421000000
C     0.006000000    -3.968000000    -2.319000000
H    -1.067000000    -4.127000000    -2.236000000
C     0.908000000    -4.551000000    -1.455000000
O     0.338000000    -5.074000000    -0.352000000
C     0.201000000    -4.318000000     0.817000000
H     0.262000000    -3.259000000     0.525000000
C    -1.191000000    -4.454000000     1.419000000
C    -1.445000000    -4.357000000     2.758000000
H    -0.577000000    -4.184000000     3.389000000
C    -2.302000000    -4.582000000     0.572000000
H    -2.273000000    -4.715000000    -0.506000000
C    -3.615000000    -4.848000000     1.124000000
O    -4.653000000    -5.102000000     0.314000000
C    -3.777000000    -4.825000000     2.533000000
H    -4.735000000    -4.869000000     3.045000000
C    -2.716000000    -4.463000000     3.303000000
O    -2.799000000    -4.456000000     4.638000000
C    -1.983000000    -3.704000000     5.525000000
C    -2.082000000    -2.308000000     5.549000000
H    -2.781000000    -1.868000000     4.842000000
C    -1.156000000    -4.312000000     6.483000000
H    -1.066000000    -5.395000000     6.531000000
C    -0.325000000    -3.544000000     7.261000000
H     0.339000000    -4.084000000     7.930000000
C    -0.316000000    -2.169000000     7.148000000
H     0.278000000    -1.565000000     7.829000000
C    -1.186000000    -1.554000000     6.284000000
O    -1.212000000    -0.167000000     6.239000000
C    -0.110000000     0.571000000     5.736000000
C    -0.196000000     1.921000000     6.013000000
H    -1.035000000     2.291000000     6.598000000
C     0.736000000     2.791000000     5.454000000
O     0.702000000     4.172000000     5.824000000
C     0.667000000     5.228000000     4.895000000
C    -0.136000000     5.173000000     3.830000000
H    -0.706000000     4.263000000     3.661000000
C     1.650000000     6.203000000     4.910000000
H     2.336000000     6.181000000     5.752000000
C     1.727000000     7.192000000     3.873000000
H     2.500000000     7.955000000     3.843000000
C     0.708000000     7.243000000     2.947000000
H     0.599000000     8.026000000     2.202000000
C    -0.198000000     6.153000000     2.816000000
O    -1.044000000     6.134000000     1.832000000
C    -0.780000000     5.704000000     0.590000000
C    -1.657000000     6.075000000    -0.370000000
H    -2.449000000     6.780000000    -0.131000000
C    -1.548000000     5.661000000    -1.709000000
O    -2.451000000     6.163000000    -2.640000000
C    -2.957000000     5.358000000    -3.580000000
C    -3.551000000     4.171000000    -3.284000000
H    -3.719000000     3.987000000    -2.226000000
C    -2.689000000     5.797000000    -4.895000000
H    -2.268000000     6.799000000    -4.922000000
C    -3.140000000     5.055000000    -5.973000000
H    -2.766000000     5.230000000    -6.979000000
C    -3.768000000     3.840000000    -5.690000000
H    -4.123000000     3.182000000    -6.478000000
C    -3.885000000     3.363000000    -4.372000000
O    -4.620000000     2.185000000    -4.131000000
C    -4.103000000     0.901000000    -4.171000000
C    -5.029000000    -0.073000000    -3.903000000
H    -6.033000000     0.248000000    -3.638000000
C    -4.685000000    -1.419000000    -3.701000000
O    -5.625000000    -2.243000000    -3.190000000
C    -5.369000000    -3.564000000    -2.919000000
C    -4.989000000    -4.519000000    -3.864000000
H    -4.930000000    -4.291000000    -4.925000000
C    -4.495000000    -5.747000000    -3.386000000
H    -4.327000000    -6.502000000    -4.149000000
C    -4.257000000    -5.940000000    -2.010000000
H    -3.846000000    -6.882000000    -1.656000000
C    -4.707000000    -4.981000000    -1.100000000
C    -5.237000000    -3.791000000    -1.554000000
H    -5.495000000    -3.007000000    -0.847000000
C    -3.332000000    -0.392000000     0.298000000
H    -4.307000000    -0.543000000    -0.160000000
C    -2.215000000    -0.055000000    -0.513000000
H    -2.309000000     0.014000000    -1.594000000
C    -0.993000000     0.114000000     0.050000000
H    -0.080000000     0.349000000    -0.552000000
C    -0.887000000     0.143000000     1.408000000
H     0.111000000     0.391000000     1.758000000
C    -2.025000000    -0.046000000     2.270000000
H    -1.847000000     0.026000000     3.340000000
C    -3.275000000    -0.336000000     1.673000000
C    -4.559000000    -0.445000000     2.464000000
O    -4.535000000    -0.559000000     3.629000000
O    -5.621000000    -0.622000000     1.869000000
O    -7.988000000    -3.820000000     2.564000000
H    -8.787000000    -3.306000000     2.685000000
H    -7.649000000    -3.539000000     1.714000000
O    -6.201000000    -2.393000000     4.858000000
H    -6.896000000    -2.496000000     4.208000000
H    -5.553000000    -1.835000000     4.428000000
O    -4.086000000     0.854000000     5.776000000
H    -3.486000000     1.456000000     5.335000000
H    -4.155000000     0.107000000     5.182000000
O    -7.959000000     2.729000000     2.585000000
H    -7.784000000     2.107000000     3.292000000
H    -7.105000000     3.115000000     2.390000000
O   -10.169000000    -1.829000000     3.111000000
H    -9.382000000    -1.285000000     3.083000000
H   -10.894000000    -1.204000000     3.084000000
O    -8.467000000    -4.103000000    -1.258000000
H    -7.991000000    -3.321000000    -0.980000000
H    -8.446000000    -4.069000000    -2.214000000
O    -5.280000000     4.232000000     5.417000000
H    -4.658000000     3.827000000     6.021000000
H    -4.745000000     4.814000000     4.877000000
O    -2.748000000     2.809000000     3.973000000
H    -2.696000000     3.764000000     3.938000000
H    -2.814000000     2.539000000     3.056000000
O    -7.113000000     1.165000000     0.362000000
H    -7.615000000     1.516000000     1.098000000
H    -6.479000000     0.572000000     0.765000000
O    -7.910000000    -0.563000000     2.840000000
H    -7.625000000     0.067000000     3.502000000
H    -7.101000000    -0.843000000     2.412000000
O    -2.719000000     2.869000000     1.143000000
H    -2.377000000     2.033000000     0.824000000
H    -2.067000000     3.514000000     0.870000000
O    -6.314000000    -3.853000000     7.166000000
H    -5.654000000    -4.536000000     7.047000000
H    -6.200000000    -3.275000000     6.412000000
O    -5.731000000     3.968000000     1.476000000
H    -4.802000000     4.109000000     1.663000000
H    -5.755000000     3.738000000     0.547000000
O    -9.420000000     1.903000000    -0.837000000
H    -8.643000000     1.456000000    -0.502000000
H    -9.162000000     2.213000000    -1.705000000
O    -8.309000000    -1.264000000     6.626000000
H    -8.220000000    -2.202000000     6.799000000
H    -7.592000000    -1.063000000     6.025000000
O    -6.645000000     1.073000000     4.432000000
H    -6.213000000     1.732000000     4.975000000
H    -5.929000000     0.541000000     4.086000000
O    -4.574000000    -0.483000000     8.132000000
H    -4.532000000    -0.386000000     7.180000000
H    -4.432000000    -1.418000000     8.283000000
O    -6.048000000     3.647000000    -1.117000000
H    -6.149000000     2.706000000    -1.256000000
H    -6.229000000     4.036000000    -1.973000000
O    -7.305000000    -2.190000000     0.497000000
H    -6.615000000    -1.852000000     1.068000000
H    -7.560000000    -1.441000000    -0.041000000
