215
-1449.03687
C     1.264000000     1.784000000     5.026000000
H     1.693000000     2.603000000     4.454000000
C     1.602000000     0.474000000     4.777000000
C     0.833000000    -0.552000000     5.230000000
H     0.979000000    -1.575000000     4.890000000
C     2.605000000     0.099000000     3.599000000
O     3.551000000     1.152000000     3.518000000
H     2.017000000     0.085000000     2.670000000
O     3.235000000    -1.222000000     3.838000000
C     3.263000000    -2.046000000     2.748000000
C     2.291000000    -3.063000000     2.612000000
H     1.505000000    -3.171000000     3.355000000
C     2.231000000    -3.778000000     1.411000000
O     1.178000000    -4.689000000     1.200000000
C     3.185000000    -3.554000000     0.420000000
C     3.141000000    -4.340000000    -0.882000000
H     4.164000000    -4.397000000    -1.261000000
C     2.277000000    -3.920000000    -2.025000000
C     2.790000000    -2.998000000    -2.906000000
H     3.825000000    -2.669000000    -2.853000000
H     2.868000000    -5.362000000    -0.611000000
C     4.178000000    -2.594000000     0.623000000
H     4.909000000    -2.335000000    -0.139000000
C     4.241000000    -1.876000000     1.784000000
C     5.313000000    -0.797000000     1.916000000
H     6.148000000    -1.266000000     1.392000000
H     5.661000000    -0.702000000     2.947000000
C     4.815000000     0.614000000     1.462000000
C     5.082000000     0.986000000     0.116000000
H     5.574000000     0.270000000    -0.537000000
C     3.997000000     1.457000000     2.269000000
C     3.477000000     2.637000000     1.714000000
H     2.888000000     3.267000000     2.376000000
C     3.662000000     2.932000000     0.413000000
O     2.832000000     3.941000000    -0.083000000
C     1.637000000     3.714000000    -0.853000000
C     0.579000000     4.735000000    -0.622000000
C    -0.237000000     5.264000000    -1.597000000
H    -0.049000000     5.015000000    -2.638000000
C     0.293000000     5.005000000     0.728000000
H     0.895000000     4.642000000     1.557000000
O     1.947000000     3.693000000    -2.308000000
H     1.342000000     2.668000000    -0.683000000
C     4.430000000     2.093000000    -0.423000000
C     4.569000000     2.295000000    -1.965000000
H     5.498000000     1.881000000    -2.362000000
H     4.650000000     3.375000000    -2.105000000
C     3.367000000     1.733000000    -2.763000000
C     3.471000000     0.431000000    -3.381000000
H     4.411000000    -0.095000000    -3.236000000
C     2.194000000     2.417000000    -2.930000000
C     1.289000000     2.022000000    -3.948000000
H     0.455000000     2.689000000    -4.150000000
C     1.420000000     0.779000000    -4.556000000
O     0.248000000     0.270000000    -5.138000000
C    -0.542000000    -0.628000000    -4.304000000
C    -2.029000000    -0.251000000    -4.300000000
C    -2.446000000     1.069000000    -4.152000000
H    -1.751000000     1.903000000    -4.126000000
C    -2.921000000    -1.301000000    -4.238000000
H    -2.588000000    -2.335000000    -4.285000000
O    -0.284000000    -1.979000000    -4.717000000
H    -0.130000000    -0.453000000    -3.300000000
C     2.502000000    -0.015000000    -4.259000000
C     2.603000000    -1.446000000    -4.879000000
H     3.643000000    -1.668000000    -5.126000000
H     1.975000000    -1.509000000    -5.770000000
C     2.012000000    -2.366000000    -3.907000000
C     0.619000000    -2.646000000    -3.892000000
C     0.152000000    -3.641000000    -3.088000000
H    -0.932000000    -3.687000000    -3.011000000
C     0.934000000    -4.250000000    -2.094000000
O     0.359000000    -4.905000000    -1.034000000
C     0.172000000    -4.129000000     0.246000000
H     0.409000000    -3.067000000     0.085000000
C    -1.284000000    -4.328000000     0.730000000
C    -1.581000000    -4.286000000     2.101000000
H    -0.897000000    -3.936000000     2.870000000
C    -2.263000000    -4.680000000    -0.190000000
H    -1.973000000    -4.836000000    -1.226000000
C    -3.531000000    -4.985000000     0.241000000
O    -4.514000000    -5.523000000    -0.582000000
C    -3.877000000    -4.869000000     1.568000000
H    -4.892000000    -5.007000000     1.931000000
C    -2.920000000    -4.448000000     2.511000000
O    -3.336000000    -4.258000000     3.825000000
C    -2.485000000    -4.001000000     4.868000000
C    -2.332000000    -2.697000000     5.324000000
H    -3.008000000    -1.899000000     5.027000000
C    -1.656000000    -5.031000000     5.314000000
H    -1.848000000    -6.027000000     4.922000000
C    -0.670000000    -4.720000000     6.318000000
H    -0.075000000    -5.497000000     6.791000000
C    -0.517000000    -3.431000000     6.768000000
H     0.259000000    -3.078000000     7.442000000
C    -1.256000000    -2.387000000     6.201000000
O    -1.026000000    -1.181000000     6.693000000
C    -0.190000000    -0.190000000     6.156000000
C    -0.467000000     1.127000000     6.443000000
H    -1.179000000     1.376000000     7.225000000
C     0.306000000     2.180000000     5.950000000
O     0.030000000     3.460000000     6.230000000
C     0.229000000     4.565000000     5.434000000
C    -0.491000000     4.707000000     4.234000000
H    -1.192000000     3.932000000     3.937000000
C     1.098000000     5.535000000     5.906000000
H     1.632000000     5.393000000     6.842000000
C     1.272000000     6.634000000     5.112000000
H     1.970000000     7.438000000     5.333000000
C     0.511000000     6.848000000     3.949000000
H     0.463000000     7.733000000     3.319000000
C    -0.252000000     5.794000000     3.435000000
O    -1.077000000     5.959000000     2.413000000
C    -0.811000000     5.765000000     1.081000000
C    -1.539000000     6.358000000     0.086000000
H    -2.352000000     7.030000000     0.350000000
C    -1.307000000     6.113000000    -1.294000000
O    -2.091000000     6.575000000    -2.257000000
C    -2.658000000     5.797000000    -3.198000000
C    -3.096000000     4.539000000    -2.943000000
H    -3.057000000     4.133000000    -1.936000000
C    -2.754000000     6.368000000    -4.513000000
H    -2.326000000     7.336000000    -4.763000000
C    -3.247000000     5.572000000    -5.508000000
H    -3.128000000     5.913000000    -6.533000000
C    -3.750000000     4.300000000    -5.266000000
H    -4.359000000     3.812000000    -6.024000000
C    -3.689000000     3.817000000    -3.957000000
O    -4.285000000     2.604000000    -3.662000000
C    -3.797000000     1.315000000    -3.880000000
C    -4.687000000     0.258000000    -3.701000000
H    -5.741000000     0.492000000    -3.572000000
C    -4.248000000    -1.050000000    -3.878000000
O    -5.193000000    -2.112000000    -3.767000000
C    -4.871000000    -3.448000000    -3.483000000
C    -4.629000000    -4.268000000    -4.566000000
H    -4.649000000    -3.812000000    -5.553000000
C    -4.528000000    -5.588000000    -4.349000000
H    -4.337000000    -6.296000000    -5.152000000
C    -4.550000000    -6.097000000    -2.996000000
H    -4.367000000    -7.155000000    -2.822000000
C    -4.622000000    -5.225000000    -1.888000000
C    -4.843000000    -3.889000000    -2.144000000
H    -4.959000000    -3.245000000    -1.276000000
C    -2.875000000    -1.172000000     0.218000000
H    -3.357000000    -1.609000000    -0.652000000
C    -1.507000000    -1.189000000     0.099000000
H    -1.000000000    -1.710000000    -0.710000000
C    -0.723000000    -0.530000000     1.059000000
H     0.338000000    -0.563000000     1.027000000
C    -1.348000000     0.054000000     2.133000000
H    -0.823000000     0.530000000     2.956000000
C    -2.713000000     0.037000000     2.323000000
H    -3.092000000     0.336000000     3.297000000
C    -3.513000000    -0.661000000     1.389000000
C    -5.024000000    -0.803000000     1.541000000
O    -5.491000000    -0.428000000     2.583000000
O    -5.733000000    -1.114000000     0.635000000
O    -9.670000000    -3.102000000     1.504000000
H   -10.571000000    -3.335000000     1.278000000
H    -9.579000000    -3.358000000     2.421000000
O    -6.774000000    -2.495000000     3.762000000
H    -6.455000000    -1.708000000     3.319000000
H    -7.697000000    -2.313000000     3.937000000
O    -4.702000000     0.041000000     4.947000000
H    -4.260000000     0.879000000     4.813000000
H    -4.964000000    -0.235000000     4.068000000
O    -6.881000000     2.127000000     2.123000000
H    -6.368000000     1.333000000     2.273000000
H    -6.407000000     2.811000000     2.597000000
O    -9.506000000     1.475000000     2.773000000
H    -9.391000000     0.559000000     2.521000000
H    -8.675000000     1.892000000     2.545000000
O    -3.381000000     2.607000000     4.856000000
H    -3.366000000     3.384000000     5.414000000
H    -3.337000000     2.951000000     3.964000000
O    -3.879000000     3.577000000     2.185000000
H    -3.623000000     4.368000000     1.711000000
H    -3.938000000     2.901000000     1.510000000
O    -6.842000000     1.097000000    -0.464000000
H    -7.061000000     1.529000000     0.362000000
H    -6.550000000     0.223000000    -0.207000000
O    -8.385000000    -0.674000000     1.143000000
H    -8.710000000    -1.445000000     1.609000000
H    -7.540000000    -0.949000000     0.786000000
O    -3.970000000     2.016000000    -0.256000000
H    -3.375000000     1.272000000    -0.168000000
H    -4.745000000     1.654000000    -0.686000000
O    -7.150000000    -4.251000000     5.749000000
H    -6.270000000    -4.543000000     5.987000000
H    -7.025000000    -3.743000000     4.948000000
O    -5.957000000     3.978000000     4.475000000
H    -5.311000000     3.280000000     4.582000000
H    -5.538000000     4.753000000     4.849000000
O    -8.310000000     0.462000000    -2.937000000
H    -8.017000000     0.848000000    -2.112000000
H    -8.837000000     1.147000000    -3.348000000
O    -8.739000000    -1.186000000     4.911000000
H    -8.307000000    -0.621000000     5.552000000
H    -9.635000000    -0.852000000     4.864000000
O    -7.316000000     1.349000000     5.374000000
H    -6.479000000     0.903000000     5.243000000
H    -7.568000000     1.647000000     4.499000000
O   -10.665000000     0.019000000    -0.121000000
H   -10.557000000    -0.042000000    -1.070000000
H    -9.773000000    -0.009000000     0.225000000
O    -4.496000000    -0.304000000     7.838000000
H    -4.261000000    -0.381000000     6.913000000
H    -5.324000000    -0.778000000     7.915000000
O    -5.275000000     4.764000000    -0.645000000
H    -6.013000000     4.300000000    -0.249000000
H    -5.561000000     4.949000000    -1.539000000
O    -7.907000000    -3.261000000    -1.065000000
H    -7.411000000    -3.130000000    -0.257000000
H    -8.509000000    -2.517000000    -1.100000000
