215
-1450.99110
C     2.102000000     1.214000000     5.015000000
H     2.902000000     1.721000000     4.481000000
C     1.924000000    -0.115000000     4.680000000
C     0.827000000    -0.783000000     5.244000000
H     0.629000000    -1.779000000     4.855000000
C     2.722000000    -0.748000000     3.452000000
O     3.969000000    -0.075000000     3.302000000
H     2.142000000    -0.574000000     2.534000000
O     3.013000000    -2.164000000     3.574000000
C     3.020000000    -2.964000000     2.456000000
C     1.911000000    -3.852000000     2.323000000
H     1.134000000    -3.845000000     3.084000000
C     1.864000000    -4.513000000     1.079000000
O     0.668000000    -5.112000000     0.844000000
C     2.739000000    -4.266000000     0.007000000
C     2.637000000    -4.924000000    -1.340000000
H     3.659000000    -4.994000000    -1.717000000
C     1.743000000    -4.156000000    -2.344000000
C     2.308000000    -3.401000000    -3.311000000
H     3.378000000    -3.378000000    -3.502000000
H     2.271000000    -5.952000000    -1.297000000
C     3.855000000    -3.489000000     0.259000000
H     4.564000000    -3.199000000    -0.512000000
C     4.023000000    -2.878000000     1.504000000
C     5.178000000    -1.907000000     1.641000000
H     6.012000000    -2.233000000     1.015000000
H     5.531000000    -1.707000000     2.655000000
C     4.747000000    -0.556000000     1.103000000
C     4.955000000    -0.211000000    -0.261000000
H     5.367000000    -0.966000000    -0.925000000
C     4.232000000     0.329000000     2.002000000
C     3.838000000     1.581000000     1.654000000
H     3.593000000     2.266000000     2.461000000
C     3.989000000     1.924000000     0.313000000
O     3.685000000     3.208000000    -0.071000000
C     2.350000000     3.324000000    -0.722000000
C     1.553000000     4.536000000    -0.117000000
C     0.483000000     4.964000000    -0.859000000
H     0.258000000     4.538000000    -1.833000000
C     1.728000000     5.049000000     1.159000000
H     2.519000000     4.640000000     1.783000000
O     2.584000000     3.334000000    -2.182000000
H     1.702000000     2.462000000    -0.508000000
C     4.532000000     1.073000000    -0.639000000
C     4.890000000     1.566000000    -2.036000000
H     5.691000000     1.004000000    -2.519000000
H     5.174000000     2.620000000    -2.063000000
C     3.665000000     1.340000000    -2.908000000
C     3.557000000     0.127000000    -3.676000000
H     4.411000000    -0.529000000    -3.818000000
C     2.576000000     2.197000000    -2.893000000
C     1.433000000     1.996000000    -3.640000000
H     0.640000000     2.722000000    -3.481000000
C     1.312000000     0.792000000    -4.303000000
O     0.015000000     0.582000000    -4.785000000
C    -0.728000000    -0.452000000    -4.069000000
C    -2.229000000     0.003000000    -3.935000000
C    -2.507000000     1.251000000    -3.320000000
H    -1.726000000     1.958000000    -3.053000000
C    -3.308000000    -0.810000000    -4.142000000
H    -3.139000000    -1.826000000    -4.489000000
O    -0.672000000    -1.782000000    -4.694000000
H    -0.312000000    -0.573000000    -3.058000000
C     2.319000000    -0.191000000    -4.322000000
C     2.170000000    -1.509000000    -5.021000000
H     3.172000000    -1.818000000    -5.326000000
H     1.579000000    -1.322000000    -5.920000000
C     1.570000000    -2.540000000    -4.100000000
C     0.153000000    -2.639000000    -4.066000000
C    -0.451000000    -3.579000000    -3.229000000
H    -1.518000000    -3.757000000    -3.329000000
C     0.346000000    -4.274000000    -2.321000000
O    -0.198000000    -5.130000000    -1.383000000
C    -0.299000000    -4.531000000    -0.038000000
H     0.048000000    -3.489000000    -0.096000000
C    -1.754000000    -4.366000000     0.382000000
C    -2.051000000    -3.441000000     1.396000000
H    -1.225000000    -2.910000000     1.864000000
C    -2.817000000    -4.815000000    -0.412000000
H    -2.566000000    -5.436000000    -1.267000000
C    -4.148000000    -4.395000000    -0.180000000
O    -5.144000000    -4.878000000    -0.961000000
C    -4.381000000    -3.453000000     0.826000000
H    -5.327000000    -2.924000000     0.914000000
C    -3.306000000    -3.050000000     1.626000000
O    -3.512000000    -2.075000000     2.614000000
C    -3.194000000    -2.276000000     3.955000000
C    -2.180000000    -1.528000000     4.540000000
H    -1.614000000    -0.780000000     3.990000000
C    -4.068000000    -3.149000000     4.737000000
H    -4.961000000    -3.511000000     4.236000000
C    -3.725000000    -3.423000000     6.069000000
H    -4.208000000    -4.013000000     6.844000000
C    -2.657000000    -2.673000000     6.585000000
H    -2.380000000    -2.859000000     7.620000000
C    -2.022000000    -1.660000000     5.886000000
O    -1.210000000    -0.827000000     6.613000000
C    -0.116000000    -0.184000000     6.090000000
C     0.235000000     1.130000000     6.522000000
H    -0.389000000     1.734000000     7.176000000
C     1.254000000     1.854000000     5.932000000
O     1.323000000     3.116000000     6.368000000
C     1.842000000     4.206000000     5.634000000
C     1.242000000     4.705000000     4.485000000
H     0.379000000     4.185000000     4.076000000
C     2.952000000     4.869000000     6.206000000
H     3.296000000     4.400000000     7.124000000
C     3.460000000     6.020000000     5.616000000
H     4.358000000     6.525000000     5.964000000
C     2.791000000     6.606000000     4.578000000
H     3.044000000     7.633000000     4.327000000
C     1.745000000     5.941000000     3.970000000
O     1.041000000     6.637000000     2.898000000
C     0.877000000     6.093000000     1.622000000
C    -0.041000000     6.674000000     0.753000000
H    -0.655000000     7.498000000     1.108000000
C    -0.304000000     6.083000000    -0.471000000
O    -1.320000000     6.583000000    -1.220000000
C    -1.988000000     5.956000000    -2.254000000
C    -2.838000000     4.882000000    -1.982000000
H    -3.033000000     4.504000000    -0.982000000
C    -1.796000000     6.392000000    -3.559000000
H    -1.137000000     7.218000000    -3.815000000
C    -2.386000000     5.656000000    -4.597000000
H    -2.311000000     5.936000000    -5.644000000
C    -3.149000000     4.452000000    -4.366000000
H    -3.595000000     3.964000000    -5.229000000
C    -3.301000000     4.100000000    -3.042000000
O    -4.088000000     2.990000000    -2.655000000
C    -3.797000000     1.696000000    -3.151000000
C    -4.893000000     0.836000000    -3.396000000
H    -5.915000000     1.087000000    -3.125000000
C    -4.645000000    -0.418000000    -3.917000000
O    -5.725000000    -1.261000000    -4.374000000
C    -5.765000000    -2.573000000    -3.965000000
C    -6.500000000    -3.471000000    -4.723000000
H    -6.994000000    -3.080000000    -5.609000000
C    -6.540000000    -4.841000000    -4.401000000
H    -7.146000000    -5.513000000    -5.004000000
C    -5.911000000    -5.255000000    -3.221000000
H    -5.962000000    -6.319000000    -3.009000000
C    -5.451000000    -4.349000000    -2.269000000
C    -5.305000000    -3.017000000    -2.651000000
H    -4.817000000    -2.335000000    -1.959000000
C    -2.391000000     0.723000000     0.865000000
H    -3.389000000     0.653000000     0.440000000
C    -1.249000000     0.194000000     0.119000000
H    -1.439000000    -0.311000000    -0.825000000
C     0.011000000     0.340000000     0.648000000
H     0.892000000    -0.174000000     0.175000000
C     0.234000000     1.068000000     1.775000000
H     1.256000000     1.080000000     2.147000000
C    -0.895000000     1.614000000     2.497000000
H    -0.810000000     2.156000000     3.436000000
C    -2.166000000     1.395000000     2.039000000
C    -3.361000000     2.017000000     2.704000000
O    -3.218000000     2.767000000     3.609000000
O    -4.499000000     1.734000000     2.364000000
O    -7.773000000    -2.325000000     0.734000000
H    -7.627000000    -3.109000000     1.263000000
H    -7.269000000    -1.641000000     1.176000000
O    -6.289000000     3.751000000     6.676000000
H    -7.138000000     3.371000000     6.900000000
H    -5.978000000     4.142000000     7.493000000
O    -5.958000000    -0.777000000     2.302000000
H    -5.919000000     0.175000000     2.390000000
H    -5.043000000    -1.055000000     2.294000000
O    -3.826000000     7.685000000     2.428000000
H    -4.423000000     8.154000000     3.011000000
H    -3.984000000     6.760000000     2.617000000
O    -2.448000000     4.671000000     5.453000000
H    -2.553000000     4.062000000     4.722000000
H    -2.648000000     5.530000000     5.081000000
O    -4.499000000     5.161000000     3.279000000
H    -5.212000000     5.170000000     3.918000000
H    -4.108000000     4.292000000     3.368000000
O    -6.976000000     6.196000000     5.777000000
H    -7.142000000     6.471000000     6.679000000
H    -6.715000000     5.278000000     5.850000000
O    -6.098000000     1.751000000     4.487000000
H    -5.392000000     1.916000000     3.862000000
H    -5.918000000     2.348000000     5.213000000
O    -3.512000000     2.035000000     6.789000000
H    -3.066000000     2.323000000     5.992000000
H    -4.287000000     2.593000000     6.845000000
O    -0.632000000     5.988000000     7.296000000
H    -0.273000000     6.719000000     6.793000000
H    -1.195000000     5.525000000     6.677000000
O    -8.449000000     5.790000000     0.528000000
H    -8.056000000     5.872000000     1.397000000
H    -7.963000000     6.410000000    -0.015000000
O    -3.655000000    -0.006000000     8.378000000
H    -3.581000000     0.655000000     7.689000000
H    -4.369000000     0.306000000     8.933000000
O    -6.999000000    -0.873000000     5.065000000
H    -6.870000000     0.046000000     5.301000000
H    -6.947000000    -0.885000000     4.109000000
O    -9.389000000     0.186000000     0.659000000
H    -8.665000000     0.638000000     0.227000000
H    -9.087000000    -0.718000000     0.751000000
O    -6.181000000     3.224000000     1.238000000
H    -5.362000000     2.876000000     1.591000000
H    -6.138000000     4.163000000     1.416000000
O    -8.631000000     2.558000000     3.200000000
H    -8.325000000     2.439000000     2.301000000
H    -7.991000000     2.089000000     3.735000000
O    -2.323000000     7.644000000     5.025000000
H    -2.659000000     7.952000000     4.184000000
H    -1.457000000     8.045000000     5.099000000
O    -7.890000000     5.912000000     3.273000000
H    -8.711000000     5.456000000     3.460000000
H    -7.514000000     6.092000000     4.135000000
O    -7.305000000     1.439000000    -0.453000000
H    -8.053000000     2.012000000    -0.622000000
H    -6.699000000     1.981000000     0.053000000
