215
-1447.04341
C     3.211000000     2.772000000     3.892000000
H     3.754000000     3.202000000     3.054000000
C     2.983000000     1.392000000     3.875000000
C     2.315000000     0.812000000     4.960000000
H     2.061000000    -0.221000000     5.181000000
C     3.236000000     0.572000000     2.590000000
O     4.426000000     1.081000000     1.855000000
H     2.355000000     0.613000000     1.933000000
O     3.540000000    -0.796000000     3.011000000
C     3.221000000    -1.900000000     2.260000000
C     2.112000000    -2.660000000     2.715000000
H     1.555000000    -2.498000000     3.634000000
C     1.663000000    -3.769000000     2.016000000
O     0.440000000    -4.206000000     2.419000000
C     2.343000000    -4.115000000     0.818000000
C     1.869000000    -5.309000000    -0.005000000
H     2.765000000    -5.784000000    -0.410000000
C     0.801000000    -4.895000000    -0.999000000
C     1.208000000    -4.555000000    -2.298000000
H     2.254000000    -4.563000000    -2.594000000
H     1.372000000    -5.990000000     0.689000000
C     3.449000000    -3.367000000     0.381000000
H     3.983000000    -3.734000000    -0.491000000
C     3.944000000    -2.308000000     1.171000000
C     5.228000000    -1.566000000     0.801000000
H     5.913000000    -2.150000000     0.183000000
H     5.701000000    -1.302000000     1.749000000
C     4.951000000    -0.343000000    -0.046000000
C     4.940000000    -0.478000000    -1.471000000
H     5.358000000    -1.368000000    -1.935000000
C     4.466000000     0.849000000     0.501000000
C     4.021000000     1.853000000    -0.275000000
H     3.760000000     2.823000000     0.139000000
C     3.962000000     1.712000000    -1.648000000
O     3.524000000     2.773000000    -2.387000000
C     2.144000000     2.723000000    -2.596000000
C     1.401000000     4.053000000    -2.268000000
C     0.380000000     4.588000000    -3.102000000
H     0.010000000     4.078000000    -3.988000000
C     1.630000000     4.616000000    -1.028000000
H     2.127000000     4.115000000    -0.201000000
O     1.870000000     2.263000000    -3.981000000
H     1.657000000     2.016000000    -1.909000000
C     4.333000000     0.526000000    -2.262000000
C     4.178000000     0.322000000    -3.789000000
H     4.892000000    -0.469000000    -4.026000000
H     4.435000000     1.210000000    -4.371000000
C     2.691000000    -0.044000000    -3.990000000
C     2.297000000    -1.402000000    -4.043000000
H     3.088000000    -2.148000000    -4.016000000
C     1.702000000     0.923000000    -4.129000000
C     0.396000000     0.489000000    -4.380000000
H    -0.382000000     1.248000000    -4.366000000
C     0.036000000    -0.831000000    -4.419000000
O    -1.293000000    -1.161000000    -4.605000000
C    -1.962000000    -1.676000000    -3.462000000
C    -3.308000000    -1.009000000    -3.275000000
C    -3.392000000     0.341000000    -3.611000000
H    -2.579000000     0.859000000    -4.113000000
C    -4.323000000    -1.638000000    -2.684000000
H    -4.189000000    -2.666000000    -2.360000000
O    -2.037000000    -3.121000000    -3.467000000
H    -1.330000000    -1.449000000    -2.591000000
C     1.013000000    -1.820000000    -4.237000000
C     0.725000000    -3.307000000    -4.370000000
H     1.646000000    -3.829000000    -4.636000000
H    -0.010000000    -3.421000000    -5.169000000
C     0.242000000    -3.915000000    -3.126000000
C    -1.085000000    -3.793000000    -2.767000000
C    -1.470000000    -4.205000000    -1.447000000
H    -2.468000000    -3.985000000    -1.077000000
C    -0.543000000    -4.678000000    -0.607000000
O    -0.975000000    -4.840000000     0.715000000
C    -0.669000000    -3.788000000     1.614000000
H    -0.510000000    -2.824000000     1.108000000
C    -1.893000000    -3.407000000     2.475000000
C    -1.717000000    -2.564000000     3.568000000
H    -0.719000000    -2.378000000     3.956000000
C    -3.180000000    -3.803000000     2.097000000
H    -3.241000000    -4.507000000     1.271000000
C    -4.296000000    -3.394000000     2.791000000
O    -5.572000000    -3.669000000     2.359000000
C    -4.173000000    -2.493000000     3.845000000
H    -5.004000000    -1.971000000     4.311000000
C    -2.885000000    -2.063000000     4.234000000
O    -2.806000000    -1.295000000     5.398000000
C    -1.718000000    -1.209000000     6.117000000
C    -0.949000000    -0.035000000     6.314000000
H    -1.311000000     0.888000000     5.870000000
C    -1.260000000    -2.391000000     6.659000000
H    -1.841000000    -3.309000000     6.636000000
C    -0.016000000    -2.400000000     7.349000000
H     0.342000000    -3.332000000     7.779000000
C     0.792000000    -1.257000000     7.432000000
H     1.727000000    -1.198000000     7.982000000
C     0.339000000    -0.059000000     6.857000000
O     1.045000000     1.099000000     7.059000000
C     1.796000000     1.612000000     5.992000000
C     1.898000000     2.991000000     5.908000000
H     1.322000000     3.545000000     6.644000000
C     2.540000000     3.596000000     4.889000000
O     2.666000000     4.961000000     4.908000000
C     2.868000000     5.664000000     3.738000000
C     1.770000000     5.717000000     2.846000000
H     0.794000000     5.293000000     3.066000000
C     4.130000000     6.076000000     3.332000000
H     4.999000000     5.909000000     3.964000000
C     4.304000000     6.548000000     2.014000000
H     5.223000000     6.903000000     1.554000000
C     3.203000000     6.573000000     1.139000000
H     3.300000000     6.811000000     0.083000000
C     1.972000000     6.156000000     1.541000000
O     0.913000000     6.183000000     0.663000000
C     0.971000000     5.724000000    -0.627000000
C    -0.051000000     6.231000000    -1.436000000
H    -0.635000000     7.049000000    -1.020000000
C    -0.389000000     5.646000000    -2.662000000
O    -1.516000000     6.078000000    -3.467000000
C    -2.265000000     5.179000000    -4.252000000
C    -3.051000000     4.226000000    -3.579000000
H    -3.066000000     4.152000000    -2.495000000
C    -2.232000000     5.234000000    -5.600000000
H    -1.666000000     6.035000000    -6.068000000
C    -2.956000000     4.373000000    -6.433000000
H    -2.915000000     4.538000000    -7.507000000
C    -3.741000000     3.414000000    -5.794000000
H    -4.141000000     2.688000000    -6.496000000
C    -3.780000000     3.320000000    -4.378000000
O    -4.717000000     2.410000000    -3.819000000
C    -4.581000000     1.091000000    -3.421000000
C    -5.590000000     0.342000000    -2.790000000
H    -6.586000000     0.779000000    -2.785000000
C    -5.426000000    -0.972000000    -2.419000000
O    -6.444000000    -1.678000000    -1.946000000
C    -6.329000000    -2.726000000    -1.078000000
C    -6.701000000    -3.932000000    -1.622000000
H    -7.022000000    -4.131000000    -2.641000000
C    -6.680000000    -5.119000000    -0.844000000
H    -6.925000000    -6.113000000    -1.209000000
C    -6.201000000    -4.950000000     0.459000000
H    -6.174000000    -5.757000000     1.187000000
C    -5.878000000    -3.682000000     1.002000000
C    -5.947000000    -2.564000000     0.236000000
H    -5.741000000    -1.571000000     0.629000000
C    -1.065000000     3.083000000     0.739000000
H    -1.365000000     3.936000000     0.136000000
C    -0.536000000     1.913000000     0.175000000
H    -0.251000000     1.775000000    -0.865000000
C    -0.199000000     0.860000000     0.983000000
H     0.361000000    -0.014000000     0.570000000
C    -0.564000000     0.839000000     2.347000000
H    -0.323000000    -0.009000000     2.983000000
C    -1.171000000     1.951000000     2.919000000
H    -1.397000000     1.985000000     3.982000000
C    -1.383000000     3.103000000     2.089000000
C    -2.073000000     4.268000000     2.729000000
O    -2.029000000     4.465000000     3.951000000
O    -2.569000000     5.154000000     2.070000000
O    -7.999000000     4.536000000     4.492000000
H    -8.359000000     5.279000000     4.976000000
H    -7.073000000     4.517000000     4.735000000
O    -0.699000000     8.015000000     5.123000000
H    -0.595000000     8.770000000     4.544000000
H    -0.686000000     8.386000000     6.005000000
O    -7.360000000     7.352000000     3.887000000
H    -6.636000000     7.101000000     3.312000000
H    -8.144000000     7.039000000     3.435000000
O     0.365000000     9.331000000     0.826000000
H    -0.086000000     8.505000000     1.000000000
H     1.047000000     9.103000000     0.194000000
O    -3.602000000     8.392000000     0.909000000
H    -2.786000000     8.420000000     1.408000000
H    -4.145000000     7.756000000     1.375000000
O    -4.338000000     6.048000000     6.731000000
H    -4.419000000     6.748000000     6.084000000
H    -4.166000000     5.262000000     6.214000000
O    -0.350000000     5.417000000     5.893000000
H    -1.001000000     4.936000000     5.381000000
H    -0.391000000     6.311000000     5.554000000
O    -4.304000000     0.950000000     0.990000000
H    -3.581000000     1.014000000     1.614000000
H    -4.407000000     1.839000000     0.651000000
O    -6.073000000     6.362000000     1.417000000
H    -6.384000000     5.457000000     1.403000000
H    -5.574000000     6.456000000     0.605000000
O    -4.203000000     6.756000000     3.576000000
H    -3.376000000     6.292000000     3.445000000
H    -4.816000000     6.324000000     2.981000000
O    -1.303000000     4.122000000     8.320000000
H    -0.855000000     4.666000000     7.671000000
H    -0.622000000     3.537000000     8.652000000
O    -3.715000000     3.103000000     6.912000000
H    -2.912000000     3.249000000     7.412000000
H    -4.036000000     2.255000000     7.217000000
O    -6.652000000     3.146000000    -0.929000000
H    -5.788000000     3.378000000    -0.588000000
H    -7.032000000     2.582000000    -0.256000000
O    -4.136000000     3.909000000     0.398000000
H    -3.557000000     4.241000000     1.084000000
H    -4.317000000     4.671000000    -0.152000000
O    -7.484000000     4.251000000     1.794000000
H    -7.470000000     4.303000000     2.750000000
H    -8.320000000     3.834000000     1.589000000
O    -6.319000000     1.387000000     4.430000000
H    -6.139000000     2.283000000     4.142000000
H    -6.907000000     1.035000000     3.763000000
O    -5.333000000     8.736000000     5.316000000
H    -5.148000000     8.071000000     4.653000000
H    -6.176000000     8.477000000     5.687000000
O    -1.411000000     7.550000000     2.010000000
H    -1.635000000     7.560000000     2.940000000
H    -1.473000000     6.628000000     1.759000000
O    -4.740000000     3.833000000     4.577000000
H    -3.881000000     4.216000000     4.399000000
H    -4.655000000     3.451000000     5.450000000
