215
-1449.09974
C     1.683000000     2.530000000     4.595000000
H     2.425000000     3.050000000     3.995000000
C     1.553000000     1.161000000     4.387000000
C     0.534000000     0.531000000     5.069000000
H     0.359000000    -0.533000000     4.935000000
C     2.533000000     0.413000000     3.414000000
O     3.843000000     1.055000000     3.196000000
H     2.081000000     0.292000000     2.418000000
O     2.752000000    -0.941000000     3.944000000
C     2.856000000    -1.985000000     3.051000000
C     1.713000000    -2.789000000     3.035000000
H     0.827000000    -2.479000000     3.584000000
C     1.535000000    -3.807000000     2.119000000
O     0.274000000    -4.425000000     2.100000000
C     2.546000000    -4.078000000     1.217000000
C     2.453000000    -5.148000000     0.120000000
H     3.457000000    -5.395000000    -0.231000000
C     1.667000000    -4.503000000    -1.035000000
C     2.287000000    -3.913000000    -2.113000000
H     3.371000000    -3.918000000    -2.045000000
H     1.983000000    -6.071000000     0.466000000
C     3.698000000    -3.262000000     1.196000000
H     4.455000000    -3.406000000     0.430000000
C     3.910000000    -2.172000000     2.085000000
C     5.142000000    -1.332000000     2.012000000
H     5.865000000    -1.998000000     1.538000000
H     5.488000000    -1.159000000     3.033000000
C     4.812000000    -0.067000000     1.224000000
C     5.178000000     0.010000000    -0.099000000
H     5.732000000    -0.812000000    -0.543000000
C     4.231000000     1.064000000     1.875000000
C     3.994000000     2.218000000     1.176000000
H     3.451000000     3.013000000     1.680000000
C     4.224000000     2.246000000    -0.195000000
O     3.800000000     3.337000000    -0.862000000
C     2.580000000     3.149000000    -1.734000000
C     1.615000000     4.305000000    -1.532000000
C     0.892000000     4.823000000    -2.671000000
H     0.980000000     4.568000000    -3.724000000
C     1.477000000     4.832000000    -0.301000000
H     1.912000000     4.351000000     0.571000000
O     2.921000000     2.940000000    -3.140000000
H     2.178000000     2.215000000    -1.313000000
C     4.812000000     1.133000000    -0.864000000
C     5.049000000     1.137000000    -2.418000000
H     5.804000000     0.396000000    -2.687000000
H     5.333000000     2.091000000    -2.867000000
C     3.769000000     0.724000000    -3.130000000
C     3.594000000    -0.634000000    -3.330000000
H     4.404000000    -1.296000000    -3.035000000
C     2.760000000     1.654000000    -3.482000000
C     1.614000000     1.206000000    -4.113000000
H     0.822000000     1.910000000    -4.356000000
C     1.510000000    -0.122000000    -4.440000000
O     0.310000000    -0.539000000    -4.836000000
C    -0.495000000    -1.228000000    -3.872000000
C    -1.968000000    -0.718000000    -3.954000000
C    -2.230000000     0.632000000    -3.747000000
H    -1.368000000     1.276000000    -3.591000000
C    -3.001000000    -1.650000000    -3.982000000
H    -2.955000000    -2.722000000    -4.153000000
O    -0.453000000    -2.678000000    -4.116000000
H     0.017000000    -1.029000000    -2.919000000
C     2.473000000    -1.039000000    -4.052000000
C     2.314000000    -2.561000000    -4.328000000
H     3.292000000    -3.029000000    -4.461000000
H     1.744000000    -2.779000000    -5.234000000
C     1.612000000    -3.377000000    -3.150000000
C     0.215000000    -3.468000000    -3.191000000
C    -0.486000000    -4.052000000    -2.193000000
H    -1.568000000    -4.153000000    -2.216000000
C     0.245000000    -4.585000000    -1.122000000
O    -0.436000000    -4.932000000     0.004000000
C    -0.625000000    -4.037000000     1.060000000
H    -0.297000000    -3.058000000     0.682000000
C    -2.050000000    -4.006000000     1.508000000
C    -2.323000000    -3.396000000     2.734000000
H    -1.460000000    -3.097000000     3.323000000
C    -3.135000000    -4.347000000     0.604000000
H    -2.915000000    -4.851000000    -0.333000000
C    -4.475000000    -4.197000000     1.077000000
O    -5.566000000    -4.649000000     0.323000000
C    -4.710000000    -3.521000000     2.286000000
H    -5.698000000    -3.415000000     2.727000000
C    -3.647000000    -3.041000000     3.054000000
O    -4.058000000    -2.439000000     4.336000000
C    -3.155000000    -2.259000000     5.344000000
C    -2.753000000    -0.953000000     5.556000000
H    -3.159000000    -0.130000000     4.973000000
C    -2.570000000    -3.331000000     6.051000000
H    -2.963000000    -4.340000000     5.953000000
C    -1.461000000    -3.145000000     6.833000000
H    -0.872000000    -3.969000000     7.225000000
C    -1.128000000    -1.770000000     7.094000000
H    -0.306000000    -1.447000000     7.728000000
C    -1.714000000    -0.694000000     6.389000000
O    -1.328000000     0.625000000     6.595000000
C    -0.346000000     1.225000000     5.883000000
C    -0.221000000     2.580000000     6.006000000
H    -0.866000000     3.109000000     6.704000000
C     0.795000000     3.282000000     5.423000000
O     0.746000000     4.655000000     5.568000000
C     1.278000000     5.328000000     4.444000000
C     0.576000000     5.428000000     3.220000000
H    -0.403000000     4.974000000     3.096000000
C     2.520000000     5.937000000     4.596000000
H     2.942000000     5.811000000     5.590000000
C     3.004000000     6.787000000     3.614000000
H     3.891000000     7.398000000     3.765000000
C     2.288000000     6.907000000     2.445000000
H     2.618000000     7.521000000     1.611000000
C     1.123000000     6.151000000     2.223000000
O     0.277000000     6.423000000     1.125000000
C     0.501000000     5.851000000    -0.135000000
C    -0.245000000     6.370000000    -1.169000000
H    -1.004000000     7.118000000    -0.951000000
C     0.034000000     5.922000000    -2.479000000
O    -0.842000000     6.272000000    -3.443000000
C    -1.683000000     5.437000000    -4.026000000
C    -2.204000000     4.298000000    -3.366000000
H    -1.978000000     4.085000000    -2.324000000
C    -1.844000000     5.638000000    -5.376000000
H    -1.239000000     6.393000000    -5.872000000
C    -2.731000000     4.761000000    -6.052000000
H    -2.967000000     5.007000000    -7.084000000
C    -3.407000000     3.682000000    -5.402000000
H    -4.034000000     2.991000000    -5.961000000
C    -3.108000000     3.435000000    -4.084000000
O    -3.795000000     2.448000000    -3.475000000
C    -3.538000000     1.110000000    -3.674000000
C    -4.602000000     0.183000000    -3.768000000
H    -5.645000000     0.475000000    -3.670000000
C    -4.302000000    -1.166000000    -3.805000000
O    -5.350000000    -2.071000000    -3.872000000
C    -5.593000000    -3.257000000    -3.166000000
C    -6.484000000    -4.227000000    -3.739000000
H    -6.842000000    -4.016000000    -4.744000000
C    -6.861000000    -5.436000000    -3.107000000
H    -7.519000000    -6.174000000    -3.560000000
C    -6.339000000    -5.565000000    -1.826000000
H    -6.676000000    -6.409000000    -1.230000000
C    -5.613000000    -4.598000000    -1.106000000
C    -5.261000000    -3.436000000    -1.781000000
H    -4.693000000    -2.677000000    -1.250000000
C    -2.265000000     0.353000000     0.190000000
H    -3.305000000     0.156000000    -0.055000000
C    -1.227000000    -0.478000000    -0.132000000
H    -1.488000000    -1.437000000    -0.573000000
C     0.073000000    -0.048000000    -0.117000000
H     0.825000000    -0.777000000    -0.428000000
C     0.459000000     1.217000000     0.339000000
H     1.489000000     1.551000000     0.436000000
C    -0.569000000     2.153000000     0.645000000
H    -0.308000000     3.170000000     0.925000000
C    -1.898000000     1.670000000     0.633000000
C    -3.040000000     2.636000000     0.943000000
O    -2.902000000     3.726000000     1.409000000
O    -4.195000000     2.312000000     0.633000000
O    -6.725000000    -1.406000000     0.964000000
H    -7.338000000    -2.131000000     1.084000000
H    -7.117000000    -0.873000000     0.273000000
O    -6.083000000     2.375000000    -1.873000000
H    -5.287000000     2.461000000    -2.397000000
H    -5.770000000     2.149000000    -0.997000000
O    -6.219000000     4.858000000     3.631000000
H    -5.334000000     4.779000000     3.987000000
H    -6.791000000     4.588000000     4.350000000
O    -3.856000000     6.733000000    -0.255000000
H    -3.560000000     6.587000000     0.643000000
H    -4.411000000     5.977000000    -0.450000000
O    -3.015000000     5.998000000     5.026000000
H    -3.489000000     5.577000000     5.743000000
H    -2.566000000     6.737000000     5.437000000
O    -3.648000000     3.333000000     4.218000000
H    -3.619000000     3.356000000     3.262000000
H    -2.730000000     3.358000000     4.486000000
O    -5.664000000     1.572000000     5.317000000
H    -6.004000000     0.846000000     4.795000000
H    -5.266000000     2.162000000     4.676000000
O    -6.623000000     6.644000000     1.431000000
H    -6.143000000     5.988000000     0.925000000
H    -6.580000000     6.328000000     2.334000000
O    -4.340000000     8.507000000     3.351000000
H    -3.506000000     8.566000000     3.817000000
H    -4.517000000     7.568000000     3.295000000
O    -5.523000000     0.802000000     2.248000000
H    -4.910000000     1.269000000     1.680000000
H    -5.774000000     0.028000000     1.744000000
O    -5.467000000     4.456000000     0.256000000
H    -4.905000000     3.735000000     0.539000000
H    -6.001000000     4.084000000    -0.446000000
O    -8.107000000     0.528000000    -0.207000000
H    -7.905000000     1.317000000     0.295000000
H    -9.059000000     0.547000000    -0.311000000
O    -8.470000000     1.265000000    -3.194000000
H    -8.736000000     0.410000000    -2.855000000
H    -7.772000000     1.549000000    -2.604000000
O    -7.625000000     2.382000000     1.890000000
H    -6.878000000     1.802000000     2.038000000
H    -7.278000000     3.261000000     2.037000000
O    -7.132000000    -1.863000000     4.169000000
H    -7.412000000    -0.973000000     4.383000000
H    -6.424000000    -1.746000000     3.536000000
O    -3.161000000     7.909000000    -2.602000000
H    -2.809000000     8.776000000    -2.401000000
H    -3.393000000     7.542000000    -1.749000000
O    -1.611000000     8.955000000     1.723000000
H    -2.497000000     9.266000000     1.536000000
H    -1.723000000     8.028000000     1.935000000
O    -2.864000000     6.226000000     2.178000000
H    -2.915000000     5.320000000     1.875000000
H    -2.720000000     6.155000000     3.122000000
O    -7.897000000     5.835000000    -2.568000000
H    -7.333000000     5.073000000    -2.438000000
H    -7.326000000     6.490000000    -2.968000000
