215
-1479.57646
C     2.880000000     2.234000000     3.449000000
H     3.122000000     2.619000000     2.462000000
C     3.109000000     0.909000000     3.666000000
C     2.683000000     0.333000000     4.882000000
H     2.893000000    -0.693000000     5.176000000
C     3.493000000     0.041000000     2.520000000
O     4.555000000     0.731000000     1.791000000
H     2.589000000    -0.034000000     1.898000000
O     3.967000000    -1.199000000     3.047000000
C     3.524000000    -2.307000000     2.304000000
C     2.378000000    -2.927000000     2.651000000
H     1.869000000    -2.608000000     3.557000000
C     1.772000000    -3.885000000     1.853000000
O     0.618000000    -4.429000000     2.310000000
C     2.367000000    -4.314000000     0.653000000
C     1.683000000    -5.440000000    -0.187000000
H     2.397000000    -6.028000000    -0.768000000
C     0.617000000    -4.867000000    -1.131000000
C     0.959000000    -4.480000000    -2.400000000
H     1.938000000    -4.715000000    -2.810000000
H     1.270000000    -6.143000000     0.538000000
C     3.602000000    -3.712000000     0.280000000
H     4.094000000    -4.168000000    -0.576000000
C     4.112000000    -2.639000000     1.080000000
C     5.300000000    -1.831000000     0.550000000
H     5.834000000    -2.456000000    -0.169000000
H     5.956000000    -1.562000000     1.380000000
C     4.807000000    -0.631000000    -0.253000000
C     4.681000000    -0.650000000    -1.619000000
H     4.899000000    -1.572000000    -2.152000000
C     4.520000000     0.587000000     0.448000000
C     4.102000000     1.806000000    -0.193000000
H     3.968000000     2.676000000     0.445000000
C     3.906000000     1.719000000    -1.569000000
O     3.324000000     2.837000000    -2.121000000
C     1.924000000     2.790000000    -2.618000000
C     1.120000000     4.024000000    -2.325000000
C     0.088000000     4.476000000    -3.129000000
H    -0.114000000     3.989000000    -4.080000000
C     1.397000000     4.817000000    -1.167000000
H     2.239000000     4.515000000    -0.549000000
O     1.957000000     2.346000000    -3.970000000
H     1.449000000     2.064000000    -1.941000000
C     4.217000000     0.511000000    -2.223000000
C     4.001000000     0.423000000    -3.739000000
H     4.670000000    -0.387000000    -4.039000000
H     4.311000000     1.352000000    -4.221000000
C     2.550000000     0.070000000    -4.131000000
C     2.204000000    -1.258000000    -4.225000000
H     2.980000000    -2.016000000    -4.163000000
C     1.617000000     1.040000000    -4.216000000
C     0.305000000     0.728000000    -4.504000000
H    -0.473000000     1.486000000    -4.467000000
C    -0.022000000    -0.619000000    -4.580000000
O    -1.373000000    -0.914000000    -4.738000000
C    -1.975000000    -1.243000000    -3.495000000
C    -3.411000000    -0.582000000    -3.496000000
C    -3.601000000     0.681000000    -4.011000000
H    -2.853000000     1.149000000    -4.646000000
C    -4.392000000    -1.064000000    -2.641000000
H    -4.229000000    -2.019000000    -2.147000000
O    -2.030000000    -2.669000000    -3.407000000
H    -1.481000000    -0.840000000    -2.599000000
C     0.922000000    -1.638000000    -4.488000000
C     0.484000000    -3.122000000    -4.562000000
H     1.231000000    -3.797000000    -4.984000000
H    -0.331000000    -3.202000000    -5.285000000
C     0.099000000    -3.699000000    -3.193000000
C    -1.147000000    -3.354000000    -2.640000000
C    -1.500000000    -3.773000000    -1.418000000
H    -2.402000000    -3.409000000    -0.934000000
C    -0.676000000    -4.515000000    -0.654000000
O    -1.028000000    -4.722000000     0.680000000
C    -0.549000000    -3.831000000     1.735000000
H    -0.191000000    -2.934000000     1.208000000
C    -1.655000000    -3.433000000     2.717000000
C    -1.383000000    -3.145000000     4.087000000
H    -0.381000000    -3.261000000     4.492000000
C    -2.959000000    -3.468000000     2.335000000
H    -3.180000000    -3.710000000     1.299000000
C    -3.915000000    -3.002000000     3.185000000
O    -5.197000000    -2.934000000     2.775000000
C    -3.642000000    -2.687000000     4.544000000
H    -4.515000000    -2.646000000     5.190000000
C    -2.342000000    -2.714000000     4.946000000
O    -2.120000000    -2.504000000     6.307000000
C    -0.910000000    -2.190000000     6.837000000
C    -0.357000000    -0.918000000     6.513000000
H    -0.855000000    -0.108000000     5.987000000
C    -0.280000000    -3.140000000     7.638000000
H    -0.831000000    -4.059000000     7.820000000
C     0.939000000    -2.802000000     8.183000000
H     1.404000000    -3.327000000     9.014000000
C     1.574000000    -1.602000000     7.888000000
H     2.462000000    -1.303000000     8.439000000
C     0.916000000    -0.652000000     7.106000000
O     1.521000000     0.591000000     7.005000000
C     2.007000000     1.134000000     5.839000000
C     1.741000000     2.478000000     5.542000000
H     1.202000000     3.074000000     6.274000000
C     2.185000000     3.074000000     4.355000000
O     1.787000000     4.386000000     4.117000000
C     2.318000000     5.156000000     3.134000000
C     1.370000000     5.598000000     2.200000000
H     0.310000000     5.383000000     2.305000000
C     3.659000000     5.387000000     3.062000000
H     4.237000000     5.123000000     3.943000000
C     4.072000000     6.192000000     1.977000000
H     5.141000000     6.340000000     1.843000000
C     3.183000000     6.664000000     1.012000000
H     3.492000000     7.267000000     0.163000000
C     1.829000000     6.411000000     1.184000000
O     0.960000000     6.784000000     0.183000000
C     0.660000000     5.969000000    -0.926000000
C    -0.400000000     6.355000000    -1.727000000
H    -0.886000000     7.309000000    -1.536000000
C    -0.703000000     5.568000000    -2.824000000
O    -1.711000000     6.014000000    -3.664000000
C    -2.411000000     5.199000000    -4.536000000
C    -3.167000000     4.168000000    -3.969000000
H    -2.930000000     3.829000000    -2.963000000
C    -2.648000000     5.664000000    -5.853000000
H    -2.044000000     6.426000000    -6.340000000
C    -3.540000000     4.980000000    -6.653000000
H    -3.587000000     5.222000000    -7.712000000
C    -4.381000000     4.027000000    -5.994000000
H    -5.243000000     3.558000000    -6.463000000
C    -4.135000000     3.488000000    -4.773000000
O    -5.066000000     2.617000000    -4.187000000
C    -4.809000000     1.297000000    -3.757000000
C    -5.832000000     0.760000000    -3.009000000
H    -6.738000000     1.322000000    -2.798000000
C    -5.590000000    -0.421000000    -2.328000000
O    -6.500000000    -0.915000000    -1.423000000
C    -6.402000000    -2.029000000    -0.591000000
C    -6.596000000    -3.299000000    -1.122000000
H    -6.916000000    -3.436000000    -2.152000000
C    -6.305000000    -4.462000000    -0.322000000
H    -6.423000000    -5.476000000    -0.696000000
C    -5.923000000    -4.309000000     0.966000000
H    -5.826000000    -5.117000000     1.687000000
C    -5.674000000    -3.003000000     1.470000000
C    -6.004000000    -1.884000000     0.716000000
H    -5.859000000    -0.884000000     1.118000000
C    -1.351000000     2.643000000    -0.006000000
H    -1.841000000     3.458000000    -0.534000000
C    -0.766000000     1.702000000    -0.878000000
H    -0.691000000     1.882000000    -1.947000000
C    -0.057000000     0.701000000    -0.295000000
H     0.469000000    -0.064000000    -0.926000000
C     0.008000000     0.605000000     1.087000000
H     0.608000000    -0.207000000     1.489000000
C    -0.683000000     1.464000000     1.966000000
H    -0.530000000     1.329000000     3.033000000
C    -1.386000000     2.559000000     1.414000000
C    -2.103000000     3.603000000     2.200000000
O    -2.032000000     3.594000000     3.432000000
O    -2.799000000     4.420000000     1.656000000
O    -3.923000000     7.644000000    -0.662000000
H    -4.429000000     8.259000000    -0.131000000
H    -3.916000000     8.032000000    -1.537000000
O    -6.585000000     5.054000000     4.932000000
H    -7.176000000     4.937000000     4.188000000
H    -5.713000000     5.101000000     4.540000000
O     1.567000000     9.267000000     2.410000000
H     0.790000000     8.852000000     2.783000000
H     1.416000000     9.255000000     1.465000000
O    -5.216000000     8.359000000     3.477000000
H    -4.447000000     7.796000000     3.562000000
H    -5.770000000     7.912000000     2.837000000
O    -2.842000000     6.166000000     6.332000000
H    -3.384000000     6.152000000     5.543000000
H    -1.948000000     6.272000000     6.006000000
O    -1.139000000     8.208000000     3.716000000
H    -0.831000000     7.516000000     4.301000000
H    -1.580000000     7.743000000     3.005000000
O    -4.883000000     2.375000000     0.602000000
H    -4.379000000     1.613000000     0.316000000
H    -4.331000000     3.125000000     0.381000000
O    -4.790000000     4.572000000     8.290000000
H    -5.654000000     4.972000000     8.389000000
H    -4.320000000     5.162000000     7.700000000
O    -5.701000000     6.330000000     1.591000000
H    -6.102000000     5.506000000     1.868000000
H    -5.661000000     6.268000000     0.637000000
O    -4.098000000     5.599000000     3.919000000
H    -3.460000000     4.892000000     4.014000000
H    -4.152000000     5.747000000     2.975000000
O    -0.669000000     5.500000000     4.737000000
H    -1.287000000     4.815000000     4.483000000
H     0.179000000     5.185000000     4.424000000
O    -2.978000000     1.915000000     7.293000000
H    -2.939000000     2.832000000     7.564000000
H    -2.440000000     1.453000000     7.935000000
O    -6.432000000     4.617000000    -1.829000000
H    -6.879000000     4.094000000    -1.163000000
H    -5.510000000     4.593000000    -1.572000000
O    -4.086000000     4.867000000    -0.457000000
H    -3.476000000     4.758000000     0.272000000
H    -4.092000000     5.809000000    -0.626000000
O    -6.243000000     1.912000000     3.129000000
H    -5.780000000     1.445000000     3.826000000
H    -5.549000000     2.334000000     2.623000000
O    -7.653000000     1.152000000     0.151000000
H    -7.312000000     0.760000000    -0.653000000
H    -6.917000000     1.651000000     0.506000000
O    -2.993000000    10.107000000     3.999000000
H    -2.321000000     9.426000000     4.040000000
H    -3.757000000     9.668000000     3.624000000
O    -2.410000000     6.999000000     1.799000000
H    -2.848000000     7.205000000     0.973000000
H    -2.358000000     6.043000000     1.810000000
O    -3.781000000     1.552000000     4.668000000
H    -3.000000000     1.954000000     4.289000000
H    -3.605000000     1.527000000     5.609000000
