215
-1462.08244
C     4.164000000     0.396000000    -3.552000000
H     3.941000000    -0.476000000    -4.161000000
C     4.127000000     0.250000000    -2.138000000
C     4.433000000     1.378000000    -1.380000000
H     4.249000000     1.284000000    -0.313000000
C     3.800000000    -1.012000000    -1.412000000
O     3.767000000    -2.267000000    -2.308000000
H     2.747000000    -0.966000000    -1.099000000
O     4.642000000    -1.268000000    -0.331000000
C     4.046000000    -1.834000000     0.784000000
C     4.026000000    -1.015000000     1.911000000
H     4.488000000    -0.048000000     1.730000000
C     3.355000000    -1.351000000     3.056000000
O     3.151000000    -0.292000000     3.926000000
C     2.732000000    -2.590000000     3.146000000
C     1.930000000    -2.953000000     4.443000000
H     1.982000000    -4.040000000     4.525000000
C     0.505000000    -2.481000000     4.329000000
C    -0.441000000    -3.384000000     3.777000000
H    -0.214000000    -4.412000000     3.506000000
H     2.376000000    -2.500000000     5.332000000
C     2.831000000    -3.523000000     2.107000000
H     2.460000000    -4.545000000     2.090000000
C     3.546000000    -3.152000000     0.935000000
C     3.708000000    -4.208000000    -0.214000000
H     3.689000000    -5.229000000     0.174000000
H     4.692000000    -4.131000000    -0.682000000
C     2.576000000    -4.010000000    -1.136000000
C     1.379000000    -4.699000000    -0.960000000
H     1.255000000    -5.453000000    -0.186000000
C     2.644000000    -3.035000000    -2.141000000
C     1.527000000    -2.829000000    -2.961000000
H     1.485000000    -2.053000000    -3.720000000
C     0.378000000    -3.502000000    -2.736000000
O    -0.641000000    -3.147000000    -3.524000000
C    -1.808000000    -2.392000000    -3.144000000
C    -2.149000000    -1.429000000    -4.319000000
C    -3.389000000    -0.982000000    -4.439000000
H    -4.225000000    -1.530000000    -4.012000000
C    -1.104000000    -0.759000000    -5.002000000
H    -0.052000000    -1.034000000    -4.987000000
O    -2.896000000    -3.289000000    -2.661000000
H    -1.518000000    -1.724000000    -2.320000000
C     0.223000000    -4.453000000    -1.694000000
C    -1.014000000    -5.315000000    -1.633000000
H    -0.732000000    -6.280000000    -1.207000000
H    -1.446000000    -5.455000000    -2.625000000
C    -2.085000000    -4.612000000    -0.786000000
C    -2.024000000    -4.711000000     0.627000000
H    -1.316000000    -5.354000000     1.144000000
C    -2.900000000    -3.593000000    -1.370000000
C    -3.742000000    -2.797000000    -0.529000000
H    -4.305000000    -1.953000000    -0.917000000
C    -3.754000000    -2.943000000     0.849000000
O    -4.411000000    -1.984000000     1.515000000
C    -3.599000000    -0.882000000     2.107000000
C    -4.242000000     0.487000000     1.853000000
C    -4.852000000     0.716000000     0.611000000
H    -5.034000000    -0.128000000    -0.050000000
C    -4.090000000     1.589000000     2.787000000
H    -3.506000000     1.507000000     3.700000000
O    -3.306000000    -1.170000000     3.555000000
H    -2.623000000    -0.878000000     1.599000000
C    -2.863000000    -3.864000000     1.431000000
C    -2.768000000    -3.945000000     2.992000000
H    -2.486000000    -4.970000000     3.245000000
H    -3.674000000    -3.665000000     3.534000000
C    -1.737000000    -2.974000000     3.483000000
C    -2.054000000    -1.649000000     3.806000000
C    -1.145000000    -0.775000000     4.313000000
H    -1.454000000     0.220000000     4.625000000
C     0.136000000    -1.182000000     4.705000000
O     1.079000000    -0.211000000     5.011000000
C     1.852000000     0.397000000     3.991000000
H     1.309000000     0.333000000     3.036000000
C     2.059000000     1.844000000     4.263000000
C     3.271000000     2.485000000     3.888000000
H     4.167000000     1.972000000     3.547000000
C     0.930000000     2.634000000     4.575000000
H    -0.013000000     2.191000000     4.886000000
C     1.081000000     3.999000000     4.650000000
O     0.121000000     4.875000000     5.097000000
C     2.342000000     4.568000000     4.462000000
H     2.441000000     5.644000000     4.582000000
C     3.421000000     3.827000000     4.028000000
O     4.621000000     4.427000000     3.606000000
C     5.331000000     3.953000000     2.509000000
C     4.818000000     4.074000000     1.195000000
H     3.781000000     4.383000000     1.091000000
C     6.510000000     3.266000000     2.700000000
H     6.872000000     3.003000000     3.690000000
C     7.153000000     2.698000000     1.634000000
H     8.058000000     2.124000000     1.820000000
C     6.732000000     2.957000000     0.302000000
H     7.304000000     2.597000000    -0.549000000
C     5.539000000     3.613000000     0.125000000
O     5.116000000     3.674000000    -1.173000000
C     4.806000000     2.565000000    -1.988000000
C     4.791000000     2.685000000    -3.403000000
H     4.927000000     3.666000000    -3.850000000
C     4.510000000     1.601000000    -4.165000000
O     4.407000000     1.598000000    -5.510000000
C     3.326000000     1.063000000    -6.119000000
C     1.952000000     1.250000000    -5.778000000
H     1.667000000     1.915000000    -4.967000000
C     3.543000000     0.192000000    -7.178000000
H     4.544000000     0.107000000    -7.593000000
C     2.469000000    -0.365000000    -7.900000000
H     2.668000000    -0.944000000    -8.798000000
C     1.131000000    -0.153000000    -7.527000000
H     0.279000000    -0.668000000    -7.963000000
C     0.901000000     0.736000000    -6.528000000
O    -0.497000000     1.089000000    -6.426000000
C    -1.422000000     0.315000000    -5.831000000
C    -2.757000000     0.785000000    -5.933000000
H    -3.046000000     1.540000000    -6.659000000
C    -3.757000000     0.149000000    -5.200000000
O    -5.072000000     0.497000000    -5.338000000
C    -5.779000000     0.640000000    -4.202000000
C    -5.364000000     1.415000000    -3.164000000
H    -4.333000000     1.761000000    -3.164000000
C    -7.108000000     0.195000000    -4.310000000
H    -7.438000000    -0.438000000    -5.129000000
C    -8.045000000     0.522000000    -3.260000000
H    -9.080000000     0.195000000    -3.319000000
C    -7.613000000     1.222000000    -2.131000000
H    -8.259000000     1.549000000    -1.320000000
C    -6.249000000     1.629000000    -2.096000000
O    -5.797000000     2.363000000    -1.012000000
C    -5.215000000     2.018000000     0.238000000
C    -5.009000000     3.137000000     1.053000000
H    -5.320000000     4.117000000     0.700000000
C    -4.487000000     2.892000000     2.357000000
O    -4.197000000     4.108000000     3.096000000
C    -3.445000000     4.199000000     4.233000000
C    -4.034000000     4.375000000     5.515000000
H    -5.117000000     4.415000000     5.597000000
C    -3.220000000     4.587000000     6.603000000
H    -3.653000000     4.692000000     7.594000000
C    -1.832000000     4.689000000     6.458000000
H    -1.187000000     4.863000000     7.316000000
C    -1.245000000     4.651000000     5.172000000
C    -2.076000000     4.363000000     4.099000000
H    -1.625000000     4.185000000     3.126000000
C    -0.381000000     0.984000000    -1.594000000
H    -0.248000000     0.675000000    -2.627000000
C    -0.133000000     0.127000000    -0.543000000
H     0.347000000    -0.843000000    -0.644000000
C    -0.527000000     0.545000000     0.711000000
H    -0.207000000    -0.057000000     1.539000000
C    -1.263000000     1.685000000     0.973000000
H    -1.570000000     1.973000000     1.976000000
C    -1.541000000     2.504000000    -0.104000000
H    -2.052000000     3.452000000     0.042000000
C    -1.076000000     2.166000000    -1.407000000
C    -1.332000000     3.196000000    -2.532000000
O    -1.947000000     4.258000000    -2.369000000
O    -0.730000000     3.056000000    -3.589000000
O    -4.579000000     7.221000000    -4.591000000
H    -5.006000000     7.920000000    -4.096000000
H    -3.832000000     6.965000000    -4.050000000
O    -2.508000000     8.604000000    -0.224000000
H    -1.963000000     7.847000000    -0.436000000
H    -3.186000000     8.256000000     0.355000000
O     1.240000000     8.571000000    -1.657000000
H     1.488000000     7.680000000    -1.412000000
H     0.988000000     8.505000000    -2.578000000
O     0.557000000     5.336000000     1.063000000
H     0.795000000     4.421000000     1.213000000
H     1.081000000     5.598000000     0.307000000
O    -1.824000000     6.495000000     1.230000000
H    -1.093000000     5.877000000     1.259000000
H    -2.497000000     6.047000000     0.718000000
O    -1.635000000     8.594000000    -5.981000000
H    -1.978000000     7.921000000    -5.393000000
H    -1.656000000     9.398000000    -5.462000000
O    -3.403000000     5.491000000    -0.707000000
H    -2.930000000     4.971000000    -1.356000000
H    -4.327000000     5.338000000    -0.905000000
O    -1.545000000     4.137000000    -6.048000000
H    -1.196000000     3.606000000    -5.332000000
H    -1.497000000     3.566000000    -6.815000000
O     1.670000000     3.080000000    -0.013000000
H     1.005000000     2.606000000    -0.513000000
H     2.502000000     2.792000000    -0.388000000
O     0.906000000     7.297000000    -4.221000000
H    -0.048000000     7.296000000    -4.302000000
H     1.156000000     6.379000000    -4.328000000
O     2.353000000     4.300000000    -6.281000000
H     1.874000000     4.312000000    -7.109000000
H     3.042000000     3.649000000    -6.412000000
O     1.391000000     4.490000000    -3.702000000
H     1.578000000     4.294000000    -4.620000000
H     0.553000000     4.059000000    -3.531000000
O    -6.016000000     2.379000000    -7.158000000
H    -6.059000000     1.440000000    -7.339000000
H    -5.587000000     2.439000000    -6.305000000
O    -4.110000000     6.640000000    -7.350000000
H    -5.021000000     6.472000000    -7.591000000
H    -4.118000000     6.675000000    -6.393000000
O     2.381000000     6.016000000    -1.519000000
H     1.995000000     5.672000000    -2.324000000
H     3.325000000     5.958000000    -1.662000000
O    -1.799000000     6.359000000    -4.138000000
H    -1.787000000     5.721000000    -4.851000000
H    -1.506000000     5.867000000    -3.370000000
O    -3.734000000     3.929000000    -4.521000000
H    -3.283000000     3.982000000    -3.678000000
H    -3.043000000     4.054000000    -5.171000000
O    -6.286000000     6.418000000    -1.271000000
H    -7.094000000     6.277000000    -1.765000000
H    -6.579000000     6.752000000    -0.424000000
O    -6.493000000     4.839000000    -4.157000000
H    -5.709000000     4.316000000    -3.987000000
H    -6.168000000     5.736000000    -4.240000000
