215
-1463.08766
C    -2.170000000    -1.365000000    -4.323000000
H    -1.484000000    -2.200000000    -4.204000000
C    -1.617000000    -0.118000000    -4.538000000
C    -2.478000000     0.968000000    -4.748000000
H    -2.132000000     1.989000000    -4.886000000
C    -0.105000000    -0.035000000    -4.385000000
O     0.628000000    -1.128000000    -4.944000000
H     0.170000000    -0.020000000    -3.320000000
O     0.449000000     1.175000000    -4.939000000
C     1.283000000     1.940000000    -4.091000000
C     0.713000000     2.870000000    -3.285000000
H    -0.322000000     3.129000000    -3.494000000
C     1.460000000     3.493000000    -2.252000000
O     0.825000000     4.421000000    -1.487000000
C     2.820000000     3.200000000    -2.175000000
C     3.643000000     3.889000000    -1.137000000
H     4.708000000     3.760000000    -1.343000000
C     3.392000000     3.325000000     0.257000000
C     4.317000000     2.322000000     0.699000000
H     5.201000000     2.073000000     0.118000000
H     3.593000000     4.980000000    -1.123000000
C     3.391000000     2.210000000    -2.947000000
H     4.427000000     1.923000000    -2.783000000
C     2.657000000     1.587000000    -3.948000000
C     3.093000000     0.358000000    -4.659000000
H     4.159000000     0.496000000    -4.854000000
H     2.615000000     0.261000000    -5.636000000
C     2.822000000    -1.001000000    -3.933000000
C     3.735000000    -1.496000000    -2.994000000
H     4.651000000    -0.937000000    -2.821000000
C     1.563000000    -1.685000000    -4.122000000
C     1.284000000    -2.807000000    -3.442000000
H     0.307000000    -3.262000000    -3.580000000
C     2.184000000    -3.235000000    -2.471000000
O     1.804000000    -4.242000000    -1.683000000
C     1.398000000    -3.873000000    -0.315000000
C     0.143000000    -4.606000000     0.000000000
C    -0.448000000    -4.547000000     1.266000000
H     0.078000000    -3.986000000     2.033000000
C    -0.636000000    -5.228000000    -1.018000000
H    -0.282000000    -5.222000000    -2.046000000
O     2.437000000    -4.177000000     0.570000000
H     1.275000000    -2.780000000    -0.302000000
C     3.435000000    -2.616000000    -2.234000000
C     4.426000000    -3.069000000    -1.179000000
H     5.442000000    -2.774000000    -1.450000000
H     4.632000000    -4.138000000    -1.101000000
C     4.135000000    -2.542000000     0.221000000
C     4.766000000    -1.393000000     0.693000000
H     5.455000000    -0.920000000    -0.002000000
C     3.114000000    -3.098000000     1.045000000
C     2.755000000    -2.573000000     2.270000000
H     1.938000000    -3.023000000     2.828000000
C     3.491000000    -1.478000000     2.769000000
O     2.954000000    -0.936000000     3.921000000
C     2.044000000     0.140000000     3.793000000
C     0.958000000     0.010000000     4.872000000
C     0.517000000    -1.240000000     5.328000000
H     1.049000000    -2.146000000     5.050000000
C     0.375000000     1.173000000     5.340000000
H     0.672000000     2.183000000     5.067000000
O     2.769000000     1.384000000     3.964000000
H     1.588000000     0.137000000     2.792000000
C     4.456000000    -0.843000000     1.978000000
C     5.016000000     0.548000000     2.297000000
H     5.965000000     0.619000000     1.760000000
H     5.308000000     0.658000000     3.344000000
C     4.094000000     1.611000000     1.905000000
C     3.059000000     2.012000000     2.734000000
C     2.124000000     2.908000000     2.263000000
H     1.321000000     3.159000000     2.952000000
C     2.328000000     3.591000000     1.099000000
O     1.375000000     4.504000000     0.810000000
C     0.433000000     4.144000000    -0.157000000
H     0.422000000     3.044000000    -0.166000000
C    -0.976000000     4.566000000     0.255000000
C    -1.987000000     4.671000000    -0.680000000
H    -1.737000000     4.452000000    -1.715000000
C    -1.302000000     4.896000000     1.573000000
H    -0.556000000     4.767000000     2.354000000
C    -2.561000000     5.160000000     1.977000000
O    -2.975000000     5.292000000     3.335000000
C    -3.591000000     5.293000000     0.995000000
H    -4.648000000     5.320000000     1.249000000
C    -3.292000000     4.964000000    -0.304000000
O    -4.339000000     4.955000000    -1.184000000
C    -4.281000000     4.595000000    -2.439000000
C    -4.583000000     3.270000000    -2.882000000
H    -4.877000000     2.541000000    -2.131000000
C    -3.963000000     5.639000000    -3.350000000
H    -3.720000000     6.626000000    -2.964000000
C    -3.737000000     5.345000000    -4.669000000
H    -3.397000000     6.182000000    -5.273000000
C    -4.090000000     4.052000000    -5.115000000
H    -3.828000000     3.784000000    -6.135000000
C    -4.465000000     3.005000000    -4.245000000
O    -4.741000000     1.798000000    -4.826000000
C    -3.881000000     0.700000000    -4.671000000
C    -4.402000000    -0.507000000    -4.489000000
H    -5.480000000    -0.639000000    -4.448000000
C    -3.522000000    -1.559000000    -4.288000000
O    -4.086000000    -2.823000000    -4.298000000
C    -3.350000000    -3.965000000    -4.341000000
C    -3.306000000    -4.634000000    -3.129000000
H    -3.932000000    -4.318000000    -2.299000000
C    -2.597000000    -4.368000000    -5.405000000
H    -2.743000000    -3.745000000    -6.284000000
C    -1.931000000    -5.615000000    -5.384000000
H    -1.334000000    -5.979000000    -6.216000000
C    -1.955000000    -6.373000000    -4.190000000
H    -1.315000000    -7.250000000    -4.131000000
C    -2.597000000    -5.841000000    -3.012000000
O    -2.434000000    -6.473000000    -1.761000000
C    -1.835000000    -5.862000000    -0.759000000
C    -2.430000000    -5.812000000     0.489000000
H    -3.351000000    -6.374000000     0.623000000
C    -1.737000000    -5.101000000     1.460000000
O    -2.361000000    -4.965000000     2.681000000
C    -1.671000000    -4.955000000     3.862000000
C    -1.842000000    -3.877000000     4.760000000
H    -2.451000000    -3.018000000     4.489000000
C    -0.702000000    -5.871000000     4.241000000
H    -0.451000000    -6.612000000     3.486000000
C     0.137000000    -5.770000000     5.302000000
H     0.952000000    -6.463000000     5.490000000
C    -0.104000000    -4.652000000     6.167000000
H     0.488000000    -4.428000000     7.052000000
C    -1.045000000    -3.695000000     5.883000000
O    -1.120000000    -2.536000000     6.574000000
C    -0.666000000    -1.319000000     6.169000000
C    -1.281000000    -0.134000000     6.551000000
H    -2.085000000    -0.231000000     7.276000000
C    -0.749000000     1.086000000     6.134000000
O    -1.345000000     2.255000000     6.597000000
C    -1.149000000     3.516000000     5.949000000
C    -0.230000000     4.462000000     6.420000000
H     0.392000000     4.140000000     7.251000000
C    -0.154000000     5.679000000     5.733000000
H     0.632000000     6.399000000     5.949000000
C    -1.117000000     5.972000000     4.783000000
H    -1.049000000     6.949000000     4.310000000
C    -2.154000000     5.092000000     4.439000000
C    -2.083000000     3.773000000     4.944000000
H    -2.903000000     3.110000000     4.681000000
C    -1.708000000    -1.387000000     0.536000000
H    -1.836000000    -2.212000000     1.233000000
C    -0.492000000    -0.790000000     0.415000000
H     0.363000000    -1.168000000     0.970000000
C    -0.355000000     0.378000000    -0.377000000
H     0.590000000     0.911000000    -0.369000000
C    -1.424000000     0.835000000    -1.133000000
H    -1.312000000     1.706000000    -1.773000000
C    -2.652000000     0.113000000    -1.161000000
H    -3.441000000     0.446000000    -1.832000000
C    -2.783000000    -0.973000000    -0.268000000
C    -4.122000000    -1.764000000    -0.212000000
O    -5.047000000    -1.457000000    -0.978000000
O    -4.337000000    -2.519000000     0.701000000
O    -9.183000000    -4.132000000    -1.502000000
H    -8.593000000    -4.723000000    -1.034000000
H    -8.608000000    -3.622000000    -2.072000000
O    -7.258000000     0.542000000     4.471000000
H    -6.466000000     0.197000000     4.884000000
H    -7.925000000     0.493000000     5.155000000
O    -5.848000000    -4.468000000    -0.542000000
H    -5.287000000    -3.812000000    -0.130000000
H    -6.145000000    -5.019000000     0.182000000
O    -7.988000000    -6.189000000     0.026000000
H    -8.624000000    -6.334000000     0.727000000
H    -7.433000000    -6.969000000     0.042000000
O    -6.330000000     0.954000000    -0.827000000
H    -6.780000000     0.976000000     0.017000000
H    -5.679000000     0.258000000    -0.734000000
O    -7.026000000    -2.160000000    -2.466000000
H    -6.373000000    -1.770000000    -1.884000000
H    -7.622000000    -1.441000000    -2.673000000
O    -7.735000000     0.670000000     1.657000000
H    -7.642000000    -0.267000000     1.488000000
H    -7.882000000     0.731000000     2.601000000
O    -5.007000000    -0.734000000     4.903000000
H    -4.859000000    -1.668000000     5.052000000
H    -4.601000000    -0.560000000     4.054000000
O    -6.994000000    -5.247000000     3.112000000
H    -6.131000000    -5.647000000     3.219000000
H    -6.814000000    -4.314000000     3.001000000
O    -9.412000000    -0.923000000    -1.603000000
H   -10.332000000    -1.137000000    -1.759000000
H    -9.170000000    -1.450000000    -0.841000000
O    -7.414000000     3.550000000    -1.586000000
H    -6.856000000     2.944000000    -1.099000000
H    -8.046000000     2.987000000    -2.034000000
O    -3.221000000     0.824000000     2.292000000
H    -3.567000000     0.856000000     1.400000000
H    -2.308000000     0.559000000     2.186000000
O    -8.119000000     1.155000000    -3.449000000
H    -8.700000000     0.478000000    -3.102000000
H    -7.312000000     1.061000000    -2.944000000
O    -7.267000000    -1.917000000     0.868000000
H    -6.381000000    -1.690000000     0.585000000
H    -7.505000000    -2.671000000     0.328000000
O    -6.665000000    -6.053000000    -2.818000000
H    -6.114000000    -5.542000000    -3.412000000
H    -6.374000000    -5.797000000    -1.943000000
O    -8.266000000    -2.473000000    -5.087000000
H    -7.680000000    -2.543000000    -4.333000000
H    -8.156000000    -3.301000000    -5.554000000
O    -4.705000000    -3.127000000     3.258000000
H    -4.657000000    -4.081000000     3.306000000
H    -4.599000000    -2.928000000     2.327000000
O    -5.343000000     2.322000000     3.075000000
H    -5.974000000     1.724000000     3.476000000
H    -4.628000000     1.755000000     2.786000000
O    -9.610000000    -2.096000000     3.018000000
H   -10.264000000    -2.320000000     2.355000000
H    -8.828000000    -1.868000000     2.515000000
