215
-1442.73596
C     2.887000000     1.831000000     2.809000000
H     2.805000000     2.105000000     1.760000000
C     3.464000000     0.589000000     3.004000000
C     3.434000000     0.080000000     4.285000000
H     3.802000000    -0.936000000     4.397000000
C     3.779000000    -0.213000000     1.708000000
O     4.704000000     0.611000000     0.913000000
H     2.865000000    -0.264000000     1.098000000
O     4.424000000    -1.479000000     2.038000000
C     3.900000000    -2.482000000     1.323000000
C     2.902000000    -3.199000000     1.897000000
H     2.710000000    -2.990000000     2.946000000
C     2.167000000    -4.102000000     1.168000000
O     1.056000000    -4.615000000     1.772000000
C     2.441000000    -4.340000000    -0.200000000
C     1.668000000    -5.361000000    -0.995000000
H     2.226000000    -5.708000000    -1.868000000
C     0.443000000    -4.676000000    -1.623000000
C     0.561000000    -4.206000000    -2.950000000
H     1.505000000    -4.207000000    -3.489000000
H     1.321000000    -6.160000000    -0.336000000
C     3.502000000    -3.651000000    -0.753000000
H     3.653000000    -3.781000000    -1.822000000
C     4.165000000    -2.680000000    -0.035000000
C     5.190000000    -1.819000000    -0.799000000
H     5.540000000    -2.426000000    -1.637000000
H     6.023000000    -1.667000000    -0.110000000
C     4.710000000    -0.502000000    -1.336000000
C     4.367000000    -0.293000000    -2.673000000
H     4.406000000    -1.123000000    -3.373000000
C     4.462000000     0.660000000    -0.462000000
C     3.915000000     1.903000000    -0.919000000
H     3.697000000     2.682000000    -0.193000000
C     3.558000000     2.035000000    -2.210000000
O     2.855000000     3.158000000    -2.679000000
C     1.430000000     3.067000000    -2.729000000
C     0.800000000     4.384000000    -2.261000000
C    -0.433000000     4.799000000    -2.775000000
H    -0.887000000     4.264000000    -3.605000000
C     1.474000000     5.069000000    -1.269000000
H     2.477000000     4.842000000    -0.918000000
O     1.111000000     2.790000000    -4.056000000
H     1.210000000     2.254000000    -2.021000000
C     3.846000000     0.956000000    -3.084000000
C     3.331000000     1.038000000    -4.495000000
H     4.030000000     0.448000000    -5.093000000
H     3.417000000     2.006000000    -4.993000000
C     1.897000000     0.542000000    -4.528000000
C     1.574000000    -0.815000000    -4.735000000
H     2.400000000    -1.463000000    -5.018000000
C     0.800000000     1.476000000    -4.326000000
C    -0.517000000     1.103000000    -4.460000000
H    -1.295000000     1.842000000    -4.284000000
C    -0.763000000    -0.241000000    -4.608000000
O    -2.121000000    -0.501000000    -4.457000000
C    -2.611000000    -1.074000000    -3.195000000
C    -3.923000000    -0.439000000    -2.624000000
C    -4.142000000     0.919000000    -2.794000000
H    -3.486000000     1.536000000    -3.404000000
C    -4.791000000    -1.210000000    -1.857000000
H    -4.756000000    -2.296000000    -1.817000000
O    -2.633000000    -2.493000000    -3.315000000
H    -1.840000000    -0.844000000    -2.445000000
C     0.234000000    -1.188000000    -4.703000000
C    -0.214000000    -2.659000000    -4.828000000
H     0.474000000    -3.302000000    -5.382000000
H    -1.196000000    -2.624000000    -5.304000000
C    -0.417000000    -3.424000000    -3.536000000
C    -1.634000000    -3.245000000    -2.822000000
C    -1.745000000    -3.733000000    -1.509000000
H    -2.658000000    -3.453000000    -0.990000000
C    -0.692000000    -4.394000000    -0.890000000
O    -0.866000000    -4.790000000     0.407000000
C    -0.220000000    -4.027000000     1.409000000
H    -0.271000000    -2.990000000     1.046000000
C    -1.063000000    -3.903000000     2.698000000
C    -0.598000000    -3.499000000     3.971000000
H     0.481000000    -3.513000000     4.100000000
C    -2.469000000    -3.713000000     2.512000000
H    -2.946000000    -3.794000000     1.539000000
C    -3.278000000    -3.410000000     3.562000000
O    -4.642000000    -3.328000000     3.428000000
C    -2.767000000    -3.053000000     4.804000000
H    -3.336000000    -2.650000000     5.638000000
C    -1.382000000    -3.109000000     5.001000000
O    -0.939000000    -2.672000000     6.200000000
C     0.392000000    -2.511000000     6.393000000
C     1.062000000    -1.309000000     6.230000000
H     0.480000000    -0.517000000     5.765000000
C     1.095000000    -3.498000000     7.057000000
H     0.559000000    -4.443000000     7.079000000
C     2.453000000    -3.335000000     7.300000000
H     3.054000000    -4.110000000     7.770000000
C     3.128000000    -2.107000000     7.154000000
H     4.184000000    -2.032000000     7.400000000
C     2.356000000    -1.075000000     6.736000000
O     3.051000000     0.157000000     6.561000000
C     2.942000000     0.864000000     5.374000000
C     2.534000000     2.149000000     5.205000000
H     2.228000000     2.717000000     6.080000000
C     2.385000000     2.595000000     3.982000000
O     1.766000000     3.794000000     3.706000000
C     2.418000000     4.694000000     2.908000000
C     1.678000000     5.447000000     1.989000000
H     0.604000000     5.311000000     1.891000000
C     3.789000000     5.010000000     3.066000000
H     4.460000000     4.454000000     3.716000000
C     4.418000000     5.821000000     2.078000000
H     5.475000000     6.077000000     2.079000000
C     3.670000000     6.536000000     1.139000000
H     4.051000000     7.264000000     0.429000000
C     2.303000000     6.268000000     1.108000000
O     1.512000000     6.950000000     0.222000000
C     0.893000000     6.200000000    -0.763000000
C    -0.329000000     6.633000000    -1.269000000
H    -0.740000000     7.552000000    -0.860000000
C    -1.035000000     5.918000000    -2.251000000
O    -2.339000000     6.353000000    -2.537000000
C    -3.269000000     5.610000000    -3.091000000
C    -3.786000000     4.563000000    -2.376000000
H    -3.615000000     4.386000000    -1.318000000
C    -3.781000000     6.073000000    -4.264000000
H    -3.405000000     7.003000000    -4.682000000
C    -4.866000000     5.323000000    -4.798000000
H    -5.260000000     5.650000000    -5.757000000
C    -5.406000000     4.244000000    -4.144000000
H    -6.255000000     3.748000000    -4.606000000
C    -4.801000000     3.791000000    -2.950000000
O    -5.487000000     2.864000000    -2.223000000
C    -5.209000000     1.513000000    -2.086000000
C    -6.007000000     0.750000000    -1.231000000
H    -6.897000000     1.247000000    -0.852000000
C    -5.810000000    -0.593000000    -1.083000000
O    -6.715000000    -1.246000000    -0.314000000
C    -6.375000000    -2.360000000     0.431000000
C    -6.989000000    -3.569000000     0.054000000
H    -7.710000000    -3.568000000    -0.759000000
C    -6.756000000    -4.677000000     0.808000000
H    -7.050000000    -5.648000000     0.418000000
C    -5.871000000    -4.660000000     1.927000000
H    -5.722000000    -5.533000000     2.557000000
C    -5.322000000    -3.469000000     2.296000000
C    -5.575000000    -2.265000000     1.573000000
H    -5.127000000    -1.332000000     1.904000000
C    -0.489000000     1.351000000     0.070000000
H    -0.870000000     2.096000000    -0.624000000
C    -0.041000000     0.133000000    -0.424000000
H     0.072000000    -0.020000000    -1.494000000
C     0.471000000    -0.860000000     0.354000000
H     0.930000000    -1.730000000    -0.053000000
C     0.493000000    -0.637000000     1.756000000
H     0.935000000    -1.375000000     2.420000000
C    -0.080000000     0.496000000     2.291000000
H    -0.117000000     0.629000000     3.369000000
C    -0.634000000     1.514000000     1.472000000
C    -1.248000000     2.676000000     2.125000000
O    -1.281000000     2.807000000     3.290000000
O    -1.852000000     3.403000000     1.406000000
O    -0.484000000     2.749000000     5.768000000
H    -0.971000000     2.559000000     4.966000000
H     0.377000000     3.037000000     5.462000000
O    -3.287000000     0.255000000     5.000000000
H    -2.483000000     0.150000000     4.492000000
H    -3.441000000     1.200000000     5.011000000
O    -6.542000000     5.398000000     0.232000000
H    -5.746000000     5.040000000     0.624000000
H    -7.253000000     4.907000000     0.643000000
O     2.202000000     7.774000000     4.577000000
H     3.149000000     7.809000000     4.709000000
H     1.906000000     7.066000000     5.148000000
O    -3.273000000     3.573000000     7.335000000
H    -3.232000000     3.234000000     6.441000000
H    -2.360000000     3.608000000     7.620000000
O    -3.018000000     8.649000000     0.674000000
H    -3.874000000     8.487000000     0.279000000
H    -2.751000000     7.800000000     1.027000000
O    -6.152000000     0.300000000     3.834000000
H    -5.244000000     0.419000000     4.114000000
H    -6.486000000    -0.400000000     4.394000000
O    -0.736000000     1.272000000     7.881000000
H    -0.520000000     1.899000000     7.190000000
H     0.100000000     1.091000000     8.310000000
O    -2.724000000     6.214000000     2.038000000
H    -2.400000000     6.172000000     2.938000000
H    -2.489000000     5.367000000     1.659000000
O    -3.138000000     6.280000000     5.306000000
H    -2.284000000     5.916000000     5.073000000
H    -3.762000000     5.785000000     4.775000000
O    -0.863000000     5.648000000     4.257000000
H    -0.908000000     4.704000000     4.105000000
H     0.037000000     5.802000000     4.542000000
O    -7.781000000     1.463000000     2.281000000
H    -8.327000000     0.737000000     1.980000000
H    -7.022000000     1.041000000     2.685000000
O    -5.920000000     4.010000000     7.036000000
H    -6.445000000     3.333000000     7.465000000
H    -5.018000000     3.698000000     7.114000000
O     1.654000000     5.733000000     6.464000000
H     2.537000000     5.672000000     6.828000000
H     1.083000000     5.429000000     7.170000000
O    -0.737000000     8.643000000     5.817000000
H    -1.344000000     8.175000000     5.244000000
H     0.088000000     8.658000000     5.331000000
O    -4.313000000     3.832000000     0.768000000
H    -3.418000000     3.776000000     1.104000000
H    -4.435000000     3.020000000     0.277000000
O    -2.730000000    -0.736000000     8.204000000
H    -2.188000000     0.011000000     7.951000000
H    -2.680000000    -1.332000000     7.457000000
O    -4.796000000     4.773000000     3.477000000
H    -4.463000000     4.717000000     2.582000000
H    -5.638000000     5.219000000     3.393000000
O    -3.399000000     2.736000000     4.666000000
H    -2.688000000     2.825000000     4.031000000
H    -4.120000000     3.242000000     4.291000000
