215
-1462.04746
C     2.534000000     2.403000000     3.486000000
H     3.103000000     2.908000000     2.709000000
C     2.564000000     1.053000000     3.574000000
C     1.892000000     0.487000000     4.690000000
H     1.956000000    -0.583000000     4.870000000
C     3.209000000     0.214000000     2.485000000
O     4.279000000     0.978000000     1.822000000
H     2.434000000    -0.148000000     1.794000000
O     3.828000000    -1.027000000     3.008000000
C     3.566000000    -2.153000000     2.307000000
C     2.514000000    -2.919000000     2.768000000
H     2.034000000    -2.633000000     3.701000000
C     1.989000000    -3.917000000     1.912000000
O     0.822000000    -4.501000000     2.289000000
C     2.609000000    -4.243000000     0.711000000
C     1.961000000    -5.208000000    -0.291000000
H     2.739000000    -5.606000000    -0.946000000
C     0.892000000    -4.594000000    -1.136000000
C     1.093000000    -4.186000000    -2.458000000
H     2.096000000    -4.259000000    -2.870000000
H     1.528000000    -6.022000000     0.294000000
C     3.773000000    -3.518000000     0.355000000
H     4.150000000    -3.840000000    -0.613000000
C     4.268000000    -2.479000000     1.086000000
C     5.371000000    -1.539000000     0.620000000
H     6.116000000    -2.073000000     0.026000000
H     5.842000000    -1.068000000     1.485000000
C     4.679000000    -0.381000000    -0.158000000
C     4.579000000    -0.466000000    -1.559000000
H     4.967000000    -1.377000000    -2.007000000
C     4.428000000     0.838000000     0.464000000
C     3.927000000     1.897000000    -0.331000000
H     3.600000000     2.793000000     0.191000000
C     3.725000000     1.792000000    -1.704000000
O     3.240000000     2.876000000    -2.460000000
C     1.935000000     2.658000000    -2.985000000
C     1.043000000     3.990000000    -2.595000000
C     0.211000000     4.522000000    -3.586000000
H     0.184000000     3.922000000    -4.492000000
C     1.251000000     4.604000000    -1.396000000
H     1.893000000     4.181000000    -0.627000000
O     1.998000000     2.311000000    -4.336000000
H     1.438000000     1.832000000    -2.455000000
C     4.120000000     0.612000000    -2.320000000
C     4.042000000     0.416000000    -3.846000000
H     4.792000000    -0.334000000    -4.107000000
H     4.433000000     1.298000000    -4.357000000
C     2.660000000     0.024000000    -4.301000000
C     2.230000000    -1.299000000    -4.373000000
H     2.908000000    -2.095000000    -4.075000000
C     1.688000000     1.028000000    -4.595000000
C     0.366000000     0.729000000    -4.703000000
H    -0.442000000     1.455000000    -4.739000000
C     0.004000000    -0.594000000    -4.751000000
O    -1.356000000    -0.717000000    -4.514000000
C    -1.866000000    -1.165000000    -3.247000000
C    -3.172000000    -0.449000000    -2.973000000
C    -3.516000000     0.691000000    -3.681000000
H    -2.834000000     1.177000000    -4.374000000
C    -3.956000000    -0.908000000    -1.923000000
H    -3.784000000    -1.881000000    -1.469000000
O    -2.098000000    -2.620000000    -3.234000000
H    -1.220000000    -0.845000000    -2.416000000
C     0.912000000    -1.627000000    -4.670000000
C     0.459000000    -3.078000000    -4.627000000
H     1.262000000    -3.729000000    -4.979000000
H    -0.472000000    -3.250000000    -5.172000000
C     0.117000000    -3.572000000    -3.180000000
C    -1.162000000    -3.426000000    -2.635000000
C    -1.397000000    -3.878000000    -1.339000000
H    -2.321000000    -3.627000000    -0.825000000
C    -0.387000000    -4.459000000    -0.553000000
O    -0.695000000    -4.828000000     0.740000000
C    -0.349000000    -3.946000000     1.792000000
H    -0.175000000    -2.936000000     1.393000000
C    -1.470000000    -3.849000000     2.838000000
C    -1.198000000    -3.628000000     4.172000000
H    -0.180000000    -3.447000000     4.506000000
C    -2.817000000    -3.833000000     2.432000000
H    -3.081000000    -4.054000000     1.401000000
C    -3.840000000    -3.632000000     3.363000000
O    -5.162000000    -3.638000000     2.933000000
C    -3.551000000    -3.462000000     4.715000000
H    -4.419000000    -3.187000000     5.308000000
C    -2.226000000    -3.532000000     5.103000000
O    -1.931000000    -3.288000000     6.464000000
C    -0.706000000    -2.631000000     6.786000000
C    -0.549000000    -1.265000000     6.621000000
H    -1.381000000    -0.651000000     6.284000000
C     0.308000000    -3.246000000     7.545000000
H     0.236000000    -4.301000000     7.796000000
C     1.482000000    -2.630000000     7.855000000
H     2.314000000    -3.162000000     8.308000000
C     1.619000000    -1.290000000     7.519000000
H     2.593000000    -0.862000000     7.742000000
C     0.570000000    -0.582000000     6.960000000
O     0.647000000     0.785000000     6.775000000
C     1.241000000     1.258000000     5.633000000
C     1.312000000     2.643000000     5.527000000
H     0.947000000     3.258000000     6.345000000
C     1.919000000     3.231000000     4.406000000
O     1.990000000     4.617000000     4.240000000
C     2.194000000     5.389000000     3.121000000
C     1.218000000     5.409000000     2.159000000
H     0.314000000     4.807000000     2.189000000
C     3.251000000     6.299000000     3.007000000
H     3.981000000     6.393000000     3.807000000
C     3.395000000     7.142000000     1.887000000
H     4.159000000     7.914000000     1.831000000
C     2.467000000     7.101000000     0.880000000
H     2.557000000     7.806000000     0.057000000
C     1.421000000     6.179000000     1.001000000
O     0.454000000     6.270000000     0.078000000
C     0.524000000     5.780000000    -1.146000000
C    -0.461000000     6.245000000    -2.033000000
H    -1.080000000     7.072000000    -1.697000000
C    -0.665000000     5.548000000    -3.259000000
O    -1.626000000     5.926000000    -4.097000000
C    -2.499000000     5.050000000    -4.720000000
C    -3.207000000     4.131000000    -3.961000000
H    -3.071000000     4.084000000    -2.883000000
C    -2.734000000     5.164000000    -6.068000000
H    -2.109000000     5.855000000    -6.627000000
C    -3.603000000     4.270000000    -6.678000000
H    -3.695000000     4.303000000    -7.760000000
C    -4.368000000     3.310000000    -5.914000000
H    -5.103000000     2.635000000    -6.343000000
C    -4.196000000     3.362000000    -4.592000000
O    -5.049000000     2.579000000    -3.896000000
C    -4.711000000     1.322000000    -3.358000000
C    -5.532000000     0.861000000    -2.351000000
H    -6.459000000     1.332000000    -2.034000000
C    -5.198000000    -0.248000000    -1.637000000
O    -5.955000000    -0.665000000    -0.556000000
C    -5.964000000    -1.948000000    -0.078000000
C    -6.253000000    -2.961000000    -0.957000000
H    -6.411000000    -2.879000000    -2.029000000
C    -6.293000000    -4.285000000    -0.479000000
H    -6.416000000    -5.136000000    -1.144000000
C    -6.098000000    -4.495000000     0.890000000
H    -6.049000000    -5.493000000     1.317000000
C    -5.653000000    -3.375000000     1.706000000
C    -5.686000000    -2.087000000     1.266000000
H    -5.466000000    -1.219000000     1.882000000
C    -1.289000000     2.677000000     1.188000000
H    -1.522000000     3.639000000     0.739000000
C    -0.435000000     1.770000000     0.575000000
H     0.005000000     2.119000000    -0.356000000
C    -0.105000000     0.561000000     1.210000000
H     0.531000000    -0.208000000     0.815000000
C    -0.793000000     0.187000000     2.364000000
H    -0.554000000    -0.715000000     2.923000000
C    -1.767000000     1.027000000     2.881000000
H    -2.409000000     0.631000000     3.664000000
C    -1.964000000     2.300000000     2.375000000
C    -3.046000000     3.191000000     2.923000000
O    -3.712000000     2.890000000     3.854000000
O    -3.385000000     4.247000000     2.309000000
O    -1.048000000     7.703000000     2.628000000
H    -1.448000000     7.308000000     1.853000000
H    -0.671000000     6.964000000     3.106000000
O    -5.480000000     6.345000000     5.553000000
H    -5.329000000     6.176000000     4.623000000
H    -5.042000000     5.621000000     6.002000000
O    -4.047000000     3.936000000     6.509000000
H    -3.158000000     4.143000000     6.797000000
H    -3.931000000     3.506000000     5.662000000
O    -5.973000000     4.008000000     8.686000000
H    -5.253000000     4.019000000     8.056000000
H    -6.053000000     4.917000000     8.975000000
O    -7.812000000     4.267000000    -0.135000000
H    -6.963000000     3.828000000    -0.103000000
H    -7.764000000     4.932000000     0.553000000
O    -1.670000000     5.681000000     6.871000000
H    -1.075000000     5.173000000     7.422000000
H    -1.556000000     6.585000000     7.164000000
O    -3.295000000     1.237000000     6.001000000
H    -3.324000000     1.698000000     5.162000000
H    -2.922000000     1.873000000     6.611000000
O    -3.263000000     9.256000000     0.497000000
H    -3.203000000     8.657000000     1.241000000
H    -3.173000000     8.693000000    -0.271000000
O    -7.294000000     1.433000000     2.197000000
H    -6.970000000     2.014000000     1.509000000
H    -7.006000000     1.845000000     3.012000000
O    -1.760000000     3.146000000     8.530000000
H    -2.388000000     3.649000000     9.048000000
H    -1.919000000     2.235000000     8.778000000
O    -5.097000000     5.945000000     3.051000000
H    -4.512000000     5.219000000     2.838000000
H    -5.287000000     6.356000000     2.208000000
O    -3.697000000     8.199000000     3.378000000
H    -2.784000000     7.947000000     3.242000000
H    -4.195000000     7.402000000     3.195000000
O    -1.208000000     5.606000000     4.073000000
H    -1.987000000     5.261000000     3.637000000
H    -1.477000000     5.724000000     4.984000000
O    -3.707000000    -0.759000000     7.682000000
H    -3.446000000    -0.083000000     7.056000000
H    -3.029000000    -0.735000000     8.356000000
O    -3.177000000     8.211000000     6.177000000
H    -2.957000000     8.221000000     5.246000000
H    -3.961000000     7.664000000     6.232000000
O    -5.283000000     2.997000000     0.522000000
H    -4.884000000     3.372000000     1.307000000
H    -4.749000000     2.226000000     0.327000000
O    -5.961000000     0.436000000     6.136000000
H    -5.005000000     0.404000000     6.134000000
H    -6.175000000     1.229000000     5.644000000
O    -2.931000000     6.546000000     0.998000000
H    -3.278000000     6.536000000     0.106000000
H    -2.912000000     5.625000000     1.257000000
O    -6.234000000     3.330000000     4.070000000
H    -5.284000000     3.253000000     4.156000000
H    -6.392000000     4.271000000     4.000000000
