215
-1454.55975
C     3.432000000     2.380000000     2.806000000
H     3.523000000     2.831000000     1.822000000
C     3.672000000     0.961000000     2.891000000
C     3.394000000     0.292000000     4.023000000
H     3.599000000    -0.776000000     4.027000000
C     4.045000000     0.138000000     1.628000000
O     4.849000000     0.867000000     0.697000000
H     3.082000000    -0.084000000     1.144000000
O     4.679000000    -1.117000000     1.935000000
C     3.988000000    -2.171000000     1.376000000
C     2.965000000    -2.785000000     2.050000000
H     2.722000000    -2.556000000     3.084000000
C     2.230000000    -3.812000000     1.426000000
O     1.170000000    -4.359000000     2.111000000
C     2.479000000    -4.100000000     0.086000000
C     1.783000000    -5.180000000    -0.712000000
H     2.457000000    -5.593000000    -1.465000000
C     0.571000000    -4.552000000    -1.373000000
C     0.607000000    -4.067000000    -2.707000000
H     1.502000000    -4.083000000    -3.324000000
H     1.587000000    -6.040000000    -0.069000000
C     3.393000000    -3.395000000    -0.612000000
H     3.507000000    -3.671000000    -1.657000000
C     4.267000000    -2.471000000     0.017000000
C     5.317000000    -1.711000000    -0.788000000
H     5.566000000    -2.373000000    -1.620000000
H     6.264000000    -1.465000000    -0.304000000
C     4.735000000    -0.440000000    -1.452000000
C     4.333000000    -0.478000000    -2.851000000
H     4.643000000    -1.367000000    -3.393000000
C     4.555000000     0.739000000    -0.679000000
C     3.953000000     1.822000000    -1.262000000
H     3.743000000     2.663000000    -0.605000000
C     3.506000000     1.787000000    -2.602000000
O     2.868000000     2.890000000    -3.115000000
C     1.457000000     2.883000000    -3.110000000
C     0.859000000     4.178000000    -2.555000000
C    -0.342000000     4.582000000    -3.132000000
H    -0.852000000     3.952000000    -3.856000000
C     1.447000000     4.875000000    -1.523000000
H     2.464000000     4.693000000    -1.185000000
O     0.971000000     2.453000000    -4.472000000
H     1.121000000     2.081000000    -2.436000000
C     3.653000000     0.629000000    -3.348000000
C     3.147000000     0.572000000    -4.736000000
H     3.704000000    -0.188000000    -5.287000000
H     3.338000000     1.529000000    -5.226000000
C     1.657000000     0.191000000    -4.804000000
C     1.279000000    -1.150000000    -4.975000000
H     2.115000000    -1.844000000    -5.032000000
C     0.630000000     1.148000000    -4.645000000
C    -0.689000000     0.812000000    -4.438000000
H    -1.388000000     1.577000000    -4.112000000
C    -1.020000000    -0.509000000    -4.569000000
O    -2.352000000    -0.870000000    -4.307000000
C    -2.674000000    -1.340000000    -2.976000000
C    -3.945000000    -0.624000000    -2.323000000
C    -4.013000000     0.787000000    -2.345000000
H    -3.252000000     1.340000000    -2.889000000
C    -4.778000000    -1.278000000    -1.486000000
H    -4.761000000    -2.355000000    -1.342000000
O    -2.819000000    -2.773000000    -2.889000000
H    -1.802000000    -1.103000000    -2.348000000
C    -0.099000000    -1.491000000    -4.776000000
C    -0.475000000    -2.903000000    -4.714000000
H     0.280000000    -3.387000000    -5.337000000
H    -1.445000000    -3.032000000    -5.198000000
C    -0.481000000    -3.424000000    -3.251000000
C    -1.656000000    -3.425000000    -2.482000000
C    -1.753000000    -4.047000000    -1.291000000
H    -2.655000000    -3.989000000    -0.687000000
C    -0.612000000    -4.581000000    -0.715000000
O    -0.624000000    -4.950000000     0.653000000
C    -0.116000000    -3.950000000     1.609000000
H    -0.040000000    -3.034000000     1.005000000
C    -1.093000000    -3.656000000     2.758000000
C    -0.676000000    -3.008000000     3.908000000
H     0.382000000    -2.844000000     4.097000000
C    -2.498000000    -3.864000000     2.600000000
H    -2.839000000    -4.272000000     1.652000000
C    -3.406000000    -3.439000000     3.596000000
O    -4.736000000    -3.607000000     3.591000000
C    -2.947000000    -2.876000000     4.766000000
H    -3.581000000    -2.656000000     5.621000000
C    -1.615000000    -2.714000000     4.951000000
O    -1.222000000    -2.252000000     6.193000000
C     0.088000000    -2.118000000     6.451000000
C     0.820000000    -0.931000000     6.243000000
H     0.291000000    -0.052000000     5.884000000
C     0.688000000    -3.189000000     7.101000000
H     0.169000000    -4.021000000     7.571000000
C     2.065000000    -3.101000000     7.430000000
H     2.568000000    -3.967000000     7.854000000
C     2.769000000    -1.951000000     7.152000000
H     3.804000000    -1.830000000     7.461000000
C     2.169000000    -0.843000000     6.495000000
O     2.863000000     0.306000000     6.340000000
C     2.907000000     0.965000000     5.160000000
C     2.778000000     2.340000000     5.092000000
H     2.482000000     2.810000000     6.026000000
C     2.986000000     3.081000000     3.947000000
O     2.767000000     4.369000000     3.924000000
C     2.982000000     5.258000000     2.891000000
C     2.067000000     5.486000000     1.883000000
H     1.118000000     4.976000000     1.744000000
C     4.068000000     6.144000000     3.042000000
H     4.802000000     6.067000000     3.840000000
C     4.193000000     7.229000000     2.114000000
H     5.016000000     7.928000000     2.238000000
C     3.276000000     7.446000000     1.176000000
H     3.426000000     8.222000000     0.430000000
C     2.182000000     6.608000000     1.001000000
O     1.360000000     6.859000000    -0.057000000
C     0.741000000     5.989000000    -0.993000000
C    -0.438000000     6.415000000    -1.550000000
H    -0.737000000     7.401000000    -1.205000000
C    -0.990000000     5.722000000    -2.630000000
O    -2.176000000     6.239000000    -3.244000000
C    -3.154000000     5.322000000    -3.577000000
C    -3.614000000     4.488000000    -2.540000000
H    -3.155000000     4.517000000    -1.555000000
C    -3.635000000     5.214000000    -4.837000000
H    -3.256000000     5.817000000    -5.657000000
C    -4.610000000     4.169000000    -5.092000000
H    -4.802000000     4.054000000    -6.156000000
C    -5.118000000     3.410000000    -4.041000000
H    -5.844000000     2.636000000    -4.278000000
C    -4.596000000     3.560000000    -2.780000000
O    -5.092000000     2.811000000    -1.712000000
C    -5.014000000     1.436000000    -1.623000000
C    -5.963000000     0.758000000    -0.921000000
H    -6.776000000     1.284000000    -0.426000000
C    -5.825000000    -0.617000000    -0.813000000
O    -6.737000000    -1.288000000     0.034000000
C    -6.524000000    -2.501000000     0.660000000
C    -7.070000000    -3.656000000     0.168000000
H    -7.668000000    -3.600000000    -0.738000000
C    -6.817000000    -4.847000000     0.848000000
H    -7.317000000    -5.686000000     0.370000000
C    -6.069000000    -4.892000000     2.000000000
H    -5.927000000    -5.818000000     2.550000000
C    -5.506000000    -3.724000000     2.446000000
C    -5.785000000    -2.546000000     1.785000000
H    -5.442000000    -1.657000000     2.307000000
C    -1.056000000     2.334000000     0.328000000
H    -1.665000000     3.203000000     0.091000000
C    -0.777000000     1.406000000    -0.689000000
H    -1.064000000     1.690000000    -1.699000000
C    -0.101000000     0.200000000    -0.532000000
H     0.012000000    -0.470000000    -1.365000000
C     0.346000000    -0.075000000     0.766000000
H     0.839000000    -1.042000000     0.821000000
C     0.108000000     0.803000000     1.828000000
H     0.482000000     0.540000000     2.814000000
C    -0.566000000     2.035000000     1.603000000
C    -0.967000000     2.830000000     2.733000000
O    -0.387000000     2.843000000     3.823000000
O    -2.033000000     3.416000000     2.744000000
O    -4.423000000     7.230000000    -0.096000000
H    -4.114000000     6.457000000     0.376000000
H    -5.012000000     6.883000000    -0.765000000
O    -2.500000000     5.196000000     7.635000000
H    -1.719000000     5.357000000     7.105000000
H    -2.717000000     6.050000000     8.008000000
O    -0.992000000     2.514000000     6.372000000
H    -0.765000000     2.585000000     5.444000000
H    -0.755000000     3.364000000     6.743000000
O    -4.333000000     1.221000000     7.005000000
H    -4.812000000     1.944000000     7.413000000
H    -4.054000000     1.567000000     6.158000000
O    -7.084000000     4.398000000     0.004000000
H    -6.223000000     3.980000000     0.003000000
H    -7.146000000     4.817000000     0.862000000
O     0.211000000     4.114000000     8.918000000
H    -0.117000000     3.259000000     9.197000000
H     1.116000000     3.949000000     8.655000000
O    -2.023000000     7.885000000     1.196000000
H    -2.746000000     8.072000000     0.597000000
H    -2.329000000     7.140000000     1.714000000
O    -3.989000000    -0.154000000     4.420000000
H    -3.233000000    -0.643000000     4.743000000
H    -4.744000000    -0.592000000     4.814000000
O    -2.009000000     0.525000000     7.961000000
H    -2.887000000     0.660000000     7.604000000
H    -1.420000000     0.824000000     7.268000000
O    -2.314000000     6.207000000     3.538000000
H    -2.116000000     6.339000000     4.465000000
H    -2.222000000     5.263000000     3.405000000
O    -3.901000000     7.860000000     5.612000000
H    -3.538000000     7.514000000     4.796000000
H    -4.592000000     8.460000000     5.332000000
O    -0.075000000     5.246000000     5.797000000
H    -0.029000000     4.506000000     5.192000000
H     0.407000000     5.946000000     5.356000000
O    -6.506000000     3.090000000     4.308000000
H    -5.618000000     2.872000000     4.592000000
H    -6.777000000     2.342000000     3.776000000
O     0.957000000     7.678000000     3.978000000
H     1.602000000     8.253000000     4.389000000
H     1.347000000     7.444000000     3.136000000
O    -5.638000000     0.847000000     2.177000000
H    -6.557000000     0.749000000     2.426000000
H    -5.149000000     0.628000000     2.970000000
O    -1.319000000     9.017000000     4.033000000
H    -1.467000000     8.735000000     3.130000000
H    -0.621000000     8.445000000     4.351000000
O    -4.602000000     3.323000000     1.364000000
H    -3.664000000     3.384000000     1.550000000
H    -4.825000000     2.412000000     1.556000000
O    -5.185000000     5.450000000     2.962000000
H    -4.279000000     5.679000000     3.167000000
H    -5.118000000     4.661000000     2.425000000
O    -3.264000000     2.924000000     5.052000000
H    -2.909000000     2.695000000     4.193000000
H    -2.499000000     3.178000000     5.567000000
