215
-1429.95410
C     3.017000000     2.391000000     3.338000000
H     3.552000000     2.961000000     2.582000000
C     2.809000000     1.004000000     3.313000000
C     2.071000000     0.435000000     4.335000000
H     1.896000000    -0.637000000     4.293000000
C     3.305000000     0.153000000     2.164000000
O     4.348000000     0.790000000     1.415000000
H     2.383000000     0.025000000     1.577000000
O     3.882000000    -1.074000000     2.555000000
C     3.537000000    -2.240000000     1.922000000
C     2.532000000    -3.028000000     2.458000000
H     2.223000000    -2.686000000     3.442000000
C     1.972000000    -4.115000000     1.762000000
O     0.890000000    -4.710000000     2.304000000
C     2.551000000    -4.420000000     0.550000000
C     1.815000000    -5.384000000    -0.419000000
H     2.550000000    -5.897000000    -1.042000000
C     0.724000000    -4.673000000    -1.111000000
C     0.966000000    -4.253000000    -2.419000000
H     1.847000000    -4.709000000    -2.863000000
H     1.277000000    -6.134000000     0.165000000
C     3.517000000    -3.579000000    -0.039000000
H     3.967000000    -3.886000000    -0.980000000
C     3.995000000    -2.481000000     0.711000000
C     5.061000000    -1.598000000     0.103000000
H     5.645000000    -2.236000000    -0.563000000
H     5.705000000    -1.330000000     0.944000000
C     4.605000000    -0.360000000    -0.671000000
C     4.494000000    -0.367000000    -2.036000000
H     4.699000000    -1.314000000    -2.528000000
C     4.322000000     0.772000000     0.052000000
C     3.796000000     1.875000000    -0.620000000
H     3.605000000     2.781000000    -0.050000000
C     3.609000000     1.895000000    -2.023000000
O     3.183000000     3.104000000    -2.612000000
C     1.803000000     3.053000000    -3.028000000
C     1.083000000     4.326000000    -2.620000000
C     0.076000000     4.796000000    -3.418000000
H    -0.078000000     4.494000000    -4.451000000
C     1.216000000     4.832000000    -1.323000000
H     1.935000000     4.250000000    -0.751000000
O     1.700000000     2.705000000    -4.417000000
H     1.282000000     2.247000000    -2.491000000
C     3.982000000     0.750000000    -2.748000000
C     3.842000000     0.686000000    -4.328000000
H     4.586000000    -0.043000000    -4.657000000
H     4.011000000     1.664000000    -4.784000000
C     2.433000000     0.351000000    -4.616000000
C     2.021000000    -0.963000000    -4.622000000
H     2.754000000    -1.764000000    -4.574000000
C     1.434000000     1.349000000    -4.664000000
C     0.117000000     0.947000000    -4.467000000
H    -0.526000000     1.821000000    -4.403000000
C    -0.256000000    -0.376000000    -4.418000000
O    -1.574000000    -0.700000000    -4.357000000
C    -2.211000000    -1.197000000    -3.161000000
C    -3.539000000    -0.515000000    -2.854000000
C    -4.036000000     0.622000000    -3.553000000
H    -3.432000000     0.891000000    -4.416000000
C    -4.290000000    -0.942000000    -1.766000000
H    -3.868000000    -1.746000000    -1.170000000
O    -2.287000000    -2.594000000    -3.191000000
H    -1.563000000    -0.898000000    -2.323000000
C     0.677000000    -1.355000000    -4.544000000
C     0.359000000    -2.870000000    -4.603000000
H     1.163000000    -3.488000000    -5.008000000
H    -0.441000000    -2.998000000    -5.334000000
C    -0.006000000    -3.500000000    -3.172000000
C    -1.243000000    -3.235000000    -2.540000000
C    -1.528000000    -3.793000000    -1.289000000
H    -2.517000000    -3.657000000    -0.857000000
C    -0.553000000    -4.405000000    -0.598000000
O    -0.886000000    -4.757000000     0.691000000
C    -0.341000000    -4.095000000     1.849000000
H    -0.046000000    -3.077000000     1.556000000
C    -1.331000000    -4.017000000     2.990000000
C    -0.975000000    -3.881000000     4.349000000
H     0.052000000    -3.883000000     4.704000000
C    -2.663000000    -3.926000000     2.625000000
H    -3.005000000    -4.057000000     1.602000000
C    -3.692000000    -3.790000000     3.577000000
O    -5.036000000    -3.763000000     3.248000000
C    -3.337000000    -3.557000000     4.907000000
H    -4.153000000    -3.463000000     5.618000000
C    -1.958000000    -3.608000000     5.262000000
O    -1.685000000    -3.347000000     6.554000000
C    -0.506000000    -2.721000000     6.859000000
C    -0.418000000    -1.404000000     6.481000000
H    -1.308000000    -0.927000000     6.079000000
C     0.547000000    -3.332000000     7.457000000
H     0.458000000    -4.405000000     7.609000000
C     1.715000000    -2.613000000     7.713000000
H     2.643000000    -3.011000000     8.115000000
C     1.821000000    -1.318000000     7.214000000
H     2.734000000    -0.757000000     7.392000000
C     0.781000000    -0.709000000     6.652000000
O     0.895000000     0.614000000     6.406000000
C     1.513000000     1.192000000     5.324000000
C     1.662000000     2.555000000     5.366000000
H     1.219000000     3.088000000     6.204000000
C     2.402000000     3.189000000     4.338000000
O     2.443000000     4.534000000     4.396000000
C     2.640000000     5.286000000     3.267000000
C     1.483000000     5.555000000     2.463000000
H     0.518000000     5.195000000     2.811000000
C     3.925000000     5.684000000     2.888000000
H     4.677000000     5.502000000     3.651000000
C     4.176000000     6.267000000     1.620000000
H     5.189000000     6.597000000     1.405000000
C     3.075000000     6.562000000     0.811000000
H     3.185000000     7.224000000    -0.044000000
C     1.757000000     6.253000000     1.233000000
O     0.719000000     6.534000000     0.370000000
C     0.474000000     5.992000000    -0.892000000
C    -0.568000000     6.508000000    -1.690000000
H    -1.206000000     7.287000000    -1.281000000
C    -0.890000000     5.736000000    -2.847000000
O    -1.985000000     5.997000000    -3.579000000
C    -2.754000000     5.058000000    -4.263000000
C    -3.587000000     4.162000000    -3.598000000
H    -3.483000000     4.082000000    -2.519000000
C    -2.908000000     5.183000000    -5.664000000
H    -2.252000000     5.862000000    -6.204000000
C    -3.890000000     4.451000000    -6.309000000
H    -4.018000000     4.746000000    -7.347000000
C    -4.721000000     3.564000000    -5.623000000
H    -5.513000000     3.017000000    -6.129000000
C    -4.496000000     3.404000000    -4.262000000
O    -5.428000000     2.602000000    -3.604000000
C    -5.061000000     1.380000000    -3.038000000
C    -5.843000000     0.902000000    -1.976000000
H    -6.704000000     1.477000000    -1.645000000
C    -5.381000000    -0.180000000    -1.289000000
O    -6.089000000    -0.612000000    -0.139000000
C    -5.924000000    -1.895000000     0.335000000
C    -6.036000000    -2.932000000    -0.552000000
H    -6.294000000    -2.788000000    -1.598000000
C    -5.835000000    -4.253000000    -0.183000000
H    -5.826000000    -5.077000000    -0.891000000
C    -5.641000000    -4.486000000     1.160000000
H    -5.500000000    -5.522000000     1.456000000
C    -5.409000000    -3.462000000     2.008000000
C    -5.604000000    -2.126000000     1.644000000
H    -5.372000000    -1.367000000     2.387000000
C    -0.720000000     2.568000000     1.378000000
H    -0.799000000     3.592000000     1.020000000
C    -0.282000000     1.598000000     0.537000000
H    -0.076000000     1.762000000    -0.518000000
C    -0.159000000     0.281000000     0.965000000
H     0.097000000    -0.468000000     0.195000000
C    -0.542000000    -0.106000000     2.249000000
H    -0.451000000    -1.156000000     2.513000000
C    -1.136000000     0.827000000     3.032000000
H    -1.548000000     0.490000000     3.980000000
C    -1.267000000     2.206000000     2.621000000
C    -2.033000000     3.213000000     3.527000000
O    -2.680000000     2.761000000     4.421000000
O    -2.094000000     4.400000000     3.306000000
O    -0.698000000     8.592000000     4.213000000
H    -0.389000000     8.746000000     3.320000000
H    -0.554000000     7.658000000     4.359000000
O    -6.639000000     4.411000000     5.995000000
H    -6.600000000     5.354000000     5.835000000
H    -5.738000000     4.166000000     6.208000000
O    -3.279000000     4.035000000     6.677000000
H    -2.457000000     4.476000000     6.893000000
H    -3.074000000     3.513000000     5.902000000
O    -4.157000000     3.458000000     9.294000000
H    -4.069000000     3.494000000     8.341000000
H    -4.154000000     4.375000000     9.569000000
O    -0.630000000     4.670000000     7.719000000
H    -0.317000000     3.976000000     8.299000000
H    -1.163000000     5.230000000     8.282000000
O    -3.493000000     1.102000000     6.196000000
H    -3.155000000     1.613000000     5.460000000
H    -2.795000000     1.132000000     6.850000000
O    -1.837000000     1.286000000     8.375000000
H    -2.228000000     1.127000000     9.234000000
H    -1.006000000     1.721000000     8.568000000
O    -3.793000000     6.206000000     4.224000000
H    -3.874000000     5.821000000     5.097000000
H    -3.350000000     5.534000000     3.706000000
O     1.210000000     2.029000000     8.847000000
H     1.317000000     1.731000000     7.943000000
H     2.066000000     2.385000000     9.084000000
O    -3.399000000     8.914000000     4.777000000
H    -2.449000000     8.834000000     4.691000000
H    -3.744000000     8.124000000     4.361000000
O    -0.576000000     5.901000000     5.278000000
H    -1.015000000     5.253000000     4.727000000
H    -0.568000000     5.507000000     6.151000000
O    -4.843000000    -0.462000000     7.841000000
H    -4.359000000     0.054000000     7.197000000
H    -4.204000000    -0.644000000     8.531000000
O     1.681000000     7.301000000     6.743000000
H     2.042000000     6.765000000     7.449000000
H     1.228000000     6.678000000     6.175000000
O    -0.890000000     8.293000000     7.431000000
H    -1.406000000     7.923000000     6.715000000
H     0.018000000     8.102000000     7.195000000
O    -5.916000000     1.111000000     4.928000000
H    -5.107000000     1.033000000     5.435000000
H    -5.773000000     1.871000000     4.364000000
O    -7.813000000     3.578000000     2.518000000
H    -7.882000000     2.640000000     2.337000000
H    -6.991000000     3.669000000     2.999000000
O    -2.459000000     6.588000000     1.624000000
H    -1.550000000     6.860000000     1.743000000
H    -2.535000000     5.779000000     2.130000000
O    -4.309000000     4.534000000     0.723000000
H    -3.845000000     5.344000000     0.937000000
H    -4.944000000     4.791000000     0.054000000
O    -5.073000000     3.083000000     3.287000000
H    -4.188000000     2.797000000     3.513000000
H    -4.967000000     3.568000000     2.468000000
