215
-1442.20158
C     3.060000000     2.309000000     2.780000000
H     3.162000000     2.939000000     1.900000000
C     3.355000000     0.924000000     2.600000000
C     3.365000000     0.063000000     3.684000000
H     3.425000000    -1.021000000     3.628000000
C     3.710000000     0.346000000     1.224000000
O     4.241000000     1.359000000     0.320000000
H     2.800000000    -0.055000000     0.753000000
O     4.571000000    -0.802000000     1.341000000
C     4.190000000    -1.962000000     0.668000000
C     3.362000000    -2.893000000     1.313000000
H     3.188000000    -2.854000000     2.385000000
C     2.838000000    -3.951000000     0.587000000
O     1.954000000    -4.796000000     1.230000000
C     2.998000000    -4.019000000    -0.817000000
C     2.241000000    -5.102000000    -1.615000000
H     2.834000000    -5.429000000    -2.472000000
C     0.870000000    -4.614000000    -2.008000000
C     0.639000000    -3.929000000    -3.196000000
H     1.404000000    -3.919000000    -3.969000000
H     2.099000000    -5.992000000    -0.999000000
C     3.810000000    -3.057000000    -1.451000000
H     3.999000000    -3.093000000    -2.521000000
C     4.363000000    -1.974000000    -0.717000000
C     5.056000000    -0.936000000    -1.489000000
H     5.534000000    -1.317000000    -2.394000000
H     5.875000000    -0.619000000    -0.841000000
C     4.219000000     0.324000000    -1.898000000
C     3.618000000     0.341000000    -3.140000000
H     3.720000000    -0.435000000    -3.895000000
C     3.899000000     1.341000000    -1.008000000
C     3.206000000     2.490000000    -1.348000000
H     3.103000000     3.275000000    -0.603000000
C     2.650000000     2.546000000    -2.627000000
O     1.922000000     3.597000000    -3.084000000
C     0.515000000     3.310000000    -3.070000000
C    -0.242000000     4.376000000    -2.407000000
C    -1.354000000     4.964000000    -3.047000000
H    -1.765000000     4.615000000    -3.991000000
C     0.129000000     4.941000000    -1.143000000
H     1.054000000     4.667000000    -0.642000000
O     0.026000000     2.990000000    -4.325000000
H     0.361000000     2.406000000    -2.463000000
C     2.889000000     1.478000000    -3.573000000
C     2.324000000     1.392000000    -5.041000000
H     2.885000000     0.761000000    -5.732000000
H     2.198000000     2.373000000    -5.504000000
C     0.907000000     0.852000000    -4.965000000
C     0.734000000    -0.534000000    -5.081000000
H     1.661000000    -1.037000000    -5.345000000
C    -0.173000000     1.689000000    -4.687000000
C    -1.419000000     1.107000000    -4.473000000
H    -2.274000000     1.742000000    -4.255000000
C    -1.600000000    -0.268000000    -4.596000000
O    -2.666000000    -0.765000000    -4.102000000
C    -2.600000000    -1.152000000    -2.732000000
C    -3.640000000    -0.394000000    -1.822000000
C    -4.551000000     0.568000000    -2.288000000
H    -4.641000000     0.954000000    -3.300000000
C    -3.680000000    -0.795000000    -0.473000000
H    -2.929000000    -1.500000000    -0.124000000
O    -2.730000000    -2.597000000    -2.590000000
H    -1.653000000    -0.845000000    -2.263000000
C    -0.464000000    -1.123000000    -4.746000000
C    -0.775000000    -2.611000000    -4.824000000
H    -0.082000000    -3.047000000    -5.546000000
H    -1.763000000    -2.789000000    -5.254000000
C    -0.553000000    -3.348000000    -3.510000000
C    -1.597000000    -3.380000000    -2.547000000
C    -1.380000000    -4.028000000    -1.334000000
H    -2.146000000    -3.947000000    -0.567000000
C    -0.140000000    -4.581000000    -1.072000000
O    -0.046000000    -5.179000000     0.200000000
C     0.594000000    -4.363000000     1.164000000
H     0.626000000    -3.314000000     0.836000000
C    -0.021000000    -4.372000000     2.556000000
C     0.772000000    -4.419000000     3.676000000
H     1.842000000    -4.224000000     3.682000000
C    -1.396000000    -4.358000000     2.760000000
H    -1.987000000    -4.288000000     1.851000000
C    -2.037000000    -4.620000000     3.971000000
O    -3.416000000    -4.639000000     4.173000000
C    -1.202000000    -4.661000000     5.111000000
H    -1.688000000    -4.923000000     6.048000000
C     0.221000000    -4.599000000     4.996000000
O     0.998000000    -4.578000000     6.093000000
C     2.124000000    -3.715000000     6.247000000
C     1.974000000    -2.352000000     5.919000000
H     0.963000000    -1.954000000     5.876000000
C     3.357000000    -4.221000000     6.626000000
H     3.368000000    -5.221000000     7.052000000
C     4.528000000    -3.408000000     6.636000000
H     5.490000000    -3.689000000     7.057000000
C     4.339000000    -2.050000000     6.339000000
H     5.175000000    -1.361000000     6.425000000
C     3.028000000    -1.515000000     6.027000000
O     2.905000000    -0.177000000     6.070000000
C     3.103000000     0.644000000     4.940000000
C     2.763000000     1.993000000     5.062000000
H     2.547000000     2.398000000     6.048000000
C     2.673000000     2.827000000     3.969000000
O     2.463000000     4.204000000     4.122000000
C     2.365000000     5.030000000     3.015000000
C     1.114000000     5.215000000     2.413000000
H     0.279000000     4.640000000     2.806000000
C     3.451000000     5.766000000     2.586000000
H     4.365000000     5.609000000     3.151000000
C     3.292000000     6.689000000     1.576000000
H     4.179000000     7.244000000     1.280000000
C     2.070000000     6.883000000     0.974000000
H     2.071000000     7.541000000     0.109000000
C     0.934000000     6.127000000     1.345000000
O    -0.337000000     6.381000000     0.783000000
C    -0.656000000     5.862000000    -0.447000000
C    -1.772000000     6.283000000    -1.114000000
H    -2.482000000     6.975000000    -0.668000000
C    -2.124000000     5.873000000    -2.363000000
O    -3.408000000     6.220000000    -2.813000000
C    -4.386000000     5.301000000    -3.215000000
C    -4.710000000     4.195000000    -2.387000000
H    -4.076000000     4.068000000    -1.513000000
C    -5.107000000     5.501000000    -4.364000000
H    -4.818000000     6.287000000    -5.056000000
C    -6.122000000     4.666000000    -4.729000000
H    -6.500000000     4.848000000    -5.732000000
C    -6.429000000     3.597000000    -3.940000000
H    -7.211000000     2.913000000    -4.260000000
C    -5.761000000     3.321000000    -2.711000000
O    -6.194000000     2.284000000    -1.872000000
C    -5.410000000     1.211000000    -1.376000000
C    -5.433000000     0.861000000    -0.014000000
H    -6.132000000     1.386000000     0.631000000
C    -4.619000000    -0.176000000     0.399000000
O    -4.739000000    -0.593000000     1.704000000
C    -4.930000000    -1.905000000     2.185000000
C    -6.142000000    -2.511000000     1.906000000
H    -6.873000000    -1.855000000     1.441000000
C    -6.376000000    -3.869000000     2.183000000
H    -7.307000000    -4.405000000     2.019000000
C    -5.480000000    -4.546000000     2.989000000
H    -5.637000000    -5.591000000     3.240000000
C    -4.298000000    -3.938000000     3.386000000
C    -3.944000000    -2.590000000     2.973000000
H    -2.957000000    -2.154000000     3.105000000
C    -0.738000000     1.638000000     0.790000000
H    -1.196000000     2.534000000     0.378000000
C    -0.239000000     0.707000000    -0.106000000
H    -0.371000000     0.924000000    -1.163000000
C     0.386000000    -0.439000000     0.307000000
H     0.620000000    -1.163000000    -0.414000000
C     0.560000000    -0.742000000     1.675000000
H     1.099000000    -1.577000000     2.114000000
C     0.122000000     0.158000000     2.676000000
H     0.304000000     0.026000000     3.739000000
C    -0.560000000     1.329000000     2.209000000
C    -1.163000000     2.294000000     3.210000000
O    -0.954000000     2.222000000     4.413000000
O    -1.998000000     3.140000000     2.848000000
O    -4.308000000     7.677000000     4.606000000
H    -4.741000000     6.965000000     4.134000000
H    -3.744000000     8.089000000     3.952000000
O    -1.085000000     6.547000000     7.893000000
H    -1.323000000     5.804000000     8.447000000
H    -0.515000000     6.173000000     7.221000000
O     0.171000000     4.514000000     5.916000000
H    -0.557000000     4.030000000     5.526000000
H     0.659000000     4.858000000     5.168000000
O    -4.594000000    -0.327000000     5.678000000
H    -4.672000000    -1.226000000     5.999000000
H    -3.655000000    -0.143000000     5.709000000
O    -3.320000000     3.644000000     6.877000000
H    -3.044000000     4.073000000     6.067000000
H    -2.734000000     3.997000000     7.547000000
O    -4.239000000     7.249000000     0.898000000
H    -5.124000000     6.888000000     0.846000000
H    -3.690000000     6.601000000     0.458000000
O     0.779000000     3.459000000     8.427000000
H     0.462000000     3.719000000     7.562000000
H     1.728000000     3.570000000     8.378000000
O     0.369000000     0.242000000     7.205000000
H     0.590000000     1.041000000     7.684000000
H     1.046000000     0.171000000     6.532000000
O    -3.245000000     4.309000000     1.050000000
H    -4.075000000     3.891000000     1.280000000
H    -2.618000000     3.965000000     1.686000000
O    -5.253000000     4.995000000     3.925000000
H    -4.308000000     5.033000000     4.072000000
H    -5.514000000     4.141000000     4.271000000
O    -2.601000000     8.524000000     2.597000000
H    -3.150000000     8.011000000     2.004000000
H    -2.113000000     9.114000000     2.023000000
O    -2.590000000     5.218000000     4.219000000
H    -2.284000000     4.515000000     3.646000000
H    -2.027000000     5.962000000     4.006000000
O    -5.340000000     4.876000000     8.262000000
H    -4.806000000     5.661000000     8.147000000
H    -4.920000000     4.217000000     7.708000000
O    -1.620000000     4.387000000     9.032000000
H    -1.896000000     4.234000000     9.936000000
H    -0.769000000     3.955000000     8.965000000
O    -0.496000000     7.232000000     4.259000000
H    -0.474000000     7.279000000     3.303000000
H    -0.021000000     8.011000000     4.548000000
O    -4.310000000     2.045000000     3.563000000
H    -3.397000000     2.266000000     3.379000000
H    -4.277000000     1.149000000     3.899000000
O    -3.512000000     0.743000000     8.243000000
H    -3.101000000     0.907000000     7.395000000
H    -3.826000000     1.601000000     8.527000000
O    -6.439000000     2.743000000     5.199000000
H    -6.781000000     2.018000000     4.677000000
H    -5.496000000     2.584000000     5.241000000
O    -2.073000000     0.555000000     5.825000000
H    -1.288000000     0.257000000     6.285000000
H    -1.759000000     1.242000000     5.237000000
