215
-1426.74193
C     2.606000000     2.438000000     2.796000000
H     2.594000000     2.907000000     1.816000000
C     3.080000000     1.145000000     2.994000000
C     2.914000000     0.568000000     4.314000000
H     3.434000000    -0.354000000     4.563000000
C     3.765000000     0.347000000     1.837000000
O     4.517000000     1.238000000     0.921000000
H     2.894000000    -0.104000000     1.339000000
O     4.544000000    -0.809000000     2.283000000
C     4.186000000    -2.013000000     1.805000000
C     3.234000000    -2.789000000     2.507000000
H     2.966000000    -2.445000000     3.503000000
C     2.575000000    -3.837000000     1.832000000
O     1.490000000    -4.468000000     2.470000000
C     2.913000000    -4.186000000     0.553000000
C     2.161000000    -5.397000000    -0.072000000
H     2.882000000    -5.848000000    -0.757000000
C     0.951000000    -4.812000000    -0.826000000
C     1.160000000    -4.381000000    -2.117000000
H     2.148000000    -4.501000000    -2.553000000
H     1.924000000    -6.124000000     0.709000000
C     3.964000000    -3.526000000    -0.120000000
H     4.304000000    -3.849000000    -1.101000000
C     4.576000000    -2.356000000     0.494000000
C     5.496000000    -1.409000000    -0.334000000
H     6.024000000    -2.042000000    -1.050000000
H     6.305000000    -0.993000000     0.270000000
C     4.802000000    -0.269000000    -1.057000000
C     4.525000000    -0.470000000    -2.395000000
H     4.689000000    -1.486000000    -2.746000000
C     4.413000000     0.954000000    -0.436000000
C     3.781000000     1.922000000    -1.227000000
H     3.441000000     2.864000000    -0.803000000
C     3.488000000     1.724000000    -2.532000000
O     2.717000000     2.683000000    -3.072000000
C     1.311000000     2.440000000    -3.343000000
C     0.398000000     3.606000000    -3.006000000
C    -0.796000000     3.920000000    -3.620000000
H    -1.074000000     3.368000000    -4.514000000
C     0.714000000     4.423000000    -1.916000000
H     1.669000000     4.364000000    -1.400000000
O     1.194000000     1.904000000    -4.628000000
H     1.074000000     1.573000000    -2.708000000
C     3.858000000     0.515000000    -3.202000000
C     3.473000000     0.213000000    -4.656000000
H     4.151000000    -0.517000000    -5.103000000
H     3.658000000     1.075000000    -5.302000000
C     2.072000000    -0.306000000    -4.746000000
C     1.816000000    -1.692000000    -4.524000000
H     2.606000000    -2.407000000    -4.308000000
C     1.012000000     0.593000000    -4.822000000
C    -0.281000000     0.145000000    -4.868000000
H    -1.089000000     0.872000000    -4.891000000
C    -0.534000000    -1.209000000    -4.776000000
O    -1.861000000    -1.611000000    -4.590000000
C    -2.247000000    -1.722000000    -3.209000000
C    -3.571000000    -0.987000000    -2.923000000
C    -4.216000000    -0.149000000    -3.880000000
H    -3.860000000    -0.194000000    -4.906000000
C    -3.927000000    -0.978000000    -1.525000000
H    -3.266000000    -1.484000000    -0.826000000
O    -2.303000000    -3.159000000    -2.773000000
H    -1.480000000    -1.206000000    -2.613000000
C     0.478000000    -2.162000000    -4.587000000
C     0.240000000    -3.675000000    -4.394000000
H     1.136000000    -4.214000000    -4.708000000
H    -0.515000000    -4.053000000    -5.086000000
C     0.003000000    -3.975000000    -2.871000000
C    -1.189000000    -3.725000000    -2.229000000
C    -1.334000000    -4.062000000    -0.946000000
H    -2.220000000    -3.745000000    -0.402000000
C    -0.324000000    -4.673000000    -0.217000000
O    -0.553000000    -4.923000000     1.129000000
C     0.131000000    -4.063000000     2.107000000
H     0.277000000    -3.149000000     1.513000000
C    -0.757000000    -3.607000000     3.223000000
C    -0.322000000    -3.289000000     4.512000000
H     0.713000000    -3.109000000     4.790000000
C    -2.129000000    -3.584000000     3.050000000
H    -2.599000000    -3.907000000     2.125000000
C    -3.036000000    -3.246000000     4.066000000
O    -4.432000000    -3.165000000     3.852000000
C    -2.542000000    -3.000000000     5.347000000
H    -3.281000000    -2.938000000     6.141000000
C    -1.206000000    -3.062000000     5.585000000
O    -0.736000000    -2.851000000     6.889000000
C     0.387000000    -2.090000000     7.328000000
C     0.813000000    -0.914000000     6.646000000
H     0.363000000    -0.571000000     5.718000000
C     1.031000000    -2.460000000     8.508000000
H     0.751000000    -3.374000000     9.025000000
C     2.237000000    -1.847000000     8.870000000
H     2.771000000    -2.283000000     9.710000000
C     2.589000000    -0.651000000     8.225000000
H     3.498000000    -0.142000000     8.534000000
C     1.857000000    -0.153000000     7.163000000
O     2.326000000     1.011000000     6.653000000
C     2.347000000     1.348000000     5.325000000
C     1.835000000     2.651000000     5.055000000
H     1.227000000     3.265000000     5.714000000
C     2.040000000     3.214000000     3.832000000
O     1.827000000     4.531000000     3.670000000
C     2.093000000     5.275000000     2.559000000
C     1.061000000     5.462000000     1.610000000
H     0.166000000     4.848000000     1.649000000
C     3.262000000     5.932000000     2.434000000
H     4.025000000     5.940000000     3.208000000
C     3.483000000     6.823000000     1.378000000
H     4.352000000     7.475000000     1.353000000
C     2.492000000     7.000000000     0.446000000
H     2.672000000     7.753000000    -0.316000000
C     1.339000000     6.276000000     0.510000000
O     0.295000000     6.410000000    -0.400000000
C    -0.045000000     5.576000000    -1.499000000
C    -1.267000000     5.782000000    -2.113000000
H    -1.873000000     6.662000000    -1.914000000
C    -1.638000000     4.982000000    -3.194000000
O    -2.759000000     5.299000000    -3.966000000
C    -3.596000000     4.462000000    -4.716000000
C    -4.276000000     3.454000000    -4.071000000
H    -3.995000000     3.235000000    -3.044000000
C    -3.967000000     4.873000000    -5.996000000
H    -3.295000000     5.575000000    -6.482000000
C    -4.951000000     4.178000000    -6.675000000
H    -5.260000000     4.425000000    -7.688000000
C    -5.528000000     3.091000000    -6.085000000
H    -6.192000000     2.435000000    -6.643000000
C    -5.195000000     2.768000000    -4.790000000
O    -5.902000000     1.640000000    -4.263000000
C    -5.193000000     0.743000000    -3.401000000
C    -5.432000000     0.776000000    -2.051000000
H    -6.167000000     1.523000000    -1.762000000
C    -4.855000000    -0.066000000    -1.081000000
O    -5.137000000     0.072000000     0.286000000
C    -5.534000000    -1.015000000     1.051000000
C    -6.792000000    -1.550000000     0.819000000
H    -7.422000000    -1.223000000    -0.004000000
C    -7.275000000    -2.596000000     1.510000000
H    -8.281000000    -2.952000000     1.300000000
C    -6.497000000    -3.137000000     2.555000000
H    -6.904000000    -3.959000000     3.139000000
C    -5.182000000    -2.604000000     2.848000000
C    -4.722000000    -1.538000000     2.093000000
H    -3.755000000    -1.128000000     2.371000000
C    -0.880000000     2.400000000     0.867000000
H    -1.326000000     3.337000000     0.545000000
C    -0.307000000     1.518000000    -0.018000000
H    -0.321000000     1.735000000    -1.083000000
C     0.137000000     0.291000000     0.417000000
H     0.458000000    -0.404000000    -0.345000000
C    -0.037000000    -0.094000000     1.762000000
H     0.247000000    -1.113000000     2.013000000
C    -0.559000000     0.792000000     2.662000000
H    -0.806000000     0.437000000     3.659000000
C    -1.060000000     2.062000000     2.239000000
C    -1.758000000     3.020000000     3.099000000
O    -2.071000000     2.724000000     4.255000000
O    -2.107000000     4.163000000     2.758000000
O    -3.635000000     3.076000000     7.055000000
H    -2.731000000     2.823000000     6.868000000
H    -3.996000000     3.321000000     6.203000000
O    -4.694000000     1.987000000     9.320000000
H    -3.987000000     1.917000000     9.960000000
H    -4.248000000     2.046000000     8.475000000
O    -7.592000000     3.546000000     0.605000000
H    -6.667000000     3.300000000     0.600000000
H    -7.641000000     4.279000000     1.220000000
O    -2.780000000     5.309000000     8.808000000
H    -3.035000000     4.562000000     8.265000000
H    -2.195000000     4.936000000     9.467000000
O    -0.408000000     3.517000000     8.090000000
H    -0.577000000     3.065000000     8.917000000
H     0.463000000     3.898000000     8.200000000
O    -2.105000000     8.638000000     1.054000000
H    -2.483000000     8.846000000     0.200000000
H    -2.349000000     7.725000000     1.207000000
O    -3.473000000     0.656000000     4.780000000
H    -2.911000000     1.423000000     4.669000000
H    -3.212000000     0.290000000     5.625000000
O    -2.312000000    -0.611000000     7.506000000
H    -3.014000000    -1.013000000     8.019000000
H    -1.775000000    -1.348000000     7.216000000
O    -2.826000000     6.757000000     4.026000000
H    -2.181000000     7.458000000     4.115000000
H    -2.305000000     5.957000000     3.957000000
O    -5.296000000     8.226000000     4.258000000
H    -4.468000000     7.760000000     4.374000000
H    -5.894000000     7.812000000     4.880000000
O    -1.217000000     4.690000000     5.907000000
H    -1.375000000     4.019000000     5.242000000
H    -1.211000000     4.210000000     6.735000000
O    -6.316000000     1.678000000     6.685000000
H    -5.624000000     2.337000000     6.740000000
H    -6.340000000     1.431000000     5.761000000
O    -0.487000000     7.133000000     5.336000000
H     0.451000000     7.044000000     5.167000000
H    -0.723000000     6.330000000     5.800000000
O    -4.912000000     4.014000000     1.310000000
H    -4.218000000     4.624000000     1.059000000
H    -4.615000000     3.642000000     2.141000000
O    -6.176000000     1.046000000     4.010000000
H    -6.232000000     1.082000000     3.055000000
H    -5.348000000     0.599000000     4.184000000
O    -7.668000000     4.476000000     4.690000000
H    -7.114000000     4.317000000     3.926000000
H    -7.269000000     3.957000000     5.388000000
O    -2.515000000     5.905000000     0.870000000
H    -1.941000000     5.673000000     0.140000000
H    -2.247000000     5.322000000     1.580000000
O    -5.296000000     7.263000000     1.686000000
H    -5.120000000     7.812000000     2.450000000
H    -4.516000000     6.714000000     1.601000000
O    -4.522000000     3.752000000     4.382000000
H    -3.618000000     3.514000000     4.175000000
H    -4.512000000     4.707000000     4.437000000
