215
-1466.00718
C     4.561000000     2.295000000     1.996000000
H     4.837000000     2.698000000     1.025000000
C     4.334000000     0.934000000     2.138000000
C     4.181000000     0.445000000     3.402000000
H     3.785000000    -0.567000000     3.438000000
C     4.251000000     0.072000000     0.911000000
O     5.036000000     0.517000000    -0.210000000
H     3.178000000     0.051000000     0.667000000
O     4.614000000    -1.262000000     1.247000000
C     3.864000000    -2.275000000     0.645000000
C     2.942000000    -2.924000000     1.460000000
H     2.968000000    -2.709000000     2.525000000
C     2.142000000    -3.855000000     0.913000000
O     1.122000000    -4.359000000     1.740000000
C     2.276000000    -4.238000000    -0.413000000
C     1.268000000    -5.203000000    -1.051000000
H     1.660000000    -5.641000000    -1.971000000
C    -0.069000000    -4.557000000    -1.360000000
C    -0.256000000    -4.139000000    -2.671000000
H     0.598000000    -4.198000000    -3.340000000
H     1.202000000    -6.121000000    -0.464000000
C     3.224000000    -3.695000000    -1.192000000
H     3.339000000    -3.986000000    -2.233000000
C     3.983000000    -2.658000000    -0.734000000
C     4.979000000    -1.856000000    -1.580000000
H     5.299000000    -2.550000000    -2.359000000
H     5.848000000    -1.612000000    -0.965000000
C     4.449000000    -0.600000000    -2.221000000
C     3.687000000    -0.565000000    -3.374000000
H     3.558000000    -1.461000000    -3.975000000
C     4.430000000     0.549000000    -1.453000000
C     3.772000000     1.721000000    -1.873000000
H     3.652000000     2.541000000    -1.169000000
C     3.103000000     1.747000000    -3.108000000
O     2.363000000     2.881000000    -3.287000000
C     0.936000000     2.755000000    -3.043000000
C     0.383000000     3.965000000    -2.466000000
C    -0.940000000     4.347000000    -2.786000000
H    -1.515000000     3.892000000    -3.589000000
C     1.181000000     4.730000000    -1.563000000
H     2.199000000     4.435000000    -1.323000000
O     0.253000000     2.466000000    -4.268000000
H     0.749000000     1.917000000    -2.357000000
C     3.021000000     0.567000000    -3.866000000
C     2.131000000     0.487000000    -5.089000000
H     2.561000000    -0.274000000    -5.744000000
H     2.131000000     1.273000000    -5.847000000
C     0.658000000     0.215000000    -4.744000000
C     0.161000000    -1.047000000    -4.829000000
H     0.807000000    -1.897000000    -5.035000000
C    -0.222000000     1.231000000    -4.413000000
C    -1.519000000     0.909000000    -3.976000000
H    -2.027000000     1.748000000    -3.507000000
C    -2.028000000    -0.361000000    -4.093000000
O    -3.288000000    -0.601000000    -3.687000000
C    -3.348000000    -1.235000000    -2.376000000
C    -4.498000000    -0.640000000    -1.553000000
C    -4.814000000     0.730000000    -1.723000000
H    -4.235000000     1.313000000    -2.434000000
C    -5.336000000    -1.372000000    -0.706000000
H    -5.214000000    -2.442000000    -0.555000000
O    -3.593000000    -2.644000000    -2.484000000
H    -2.418000000    -1.171000000    -1.793000000
C    -1.156000000    -1.366000000    -4.469000000
C    -1.581000000    -2.838000000    -4.476000000
H    -1.041000000    -3.364000000    -5.266000000
H    -2.646000000    -2.785000000    -4.709000000
C    -1.394000000    -3.451000000    -3.093000000
C    -2.440000000    -3.406000000    -2.175000000
C    -2.279000000    -3.811000000    -0.897000000
H    -3.080000000    -3.612000000    -0.189000000
C    -1.079000000    -4.395000000    -0.472000000
O    -0.962000000    -4.544000000     0.857000000
C    -0.079000000    -3.646000000     1.538000000
H     0.010000000    -2.638000000     1.107000000
C    -0.729000000    -3.422000000     2.878000000
C     0.103000000    -3.130000000     3.961000000
H     1.189000000    -3.180000000     3.940000000
C    -2.111000000    -3.429000000     3.060000000
H    -2.816000000    -3.583000000     2.246000000
C    -2.691000000    -3.088000000     4.312000000
O    -4.039000000    -2.874000000     4.435000000
C    -1.885000000    -2.864000000     5.367000000
H    -2.340000000    -2.445000000     6.261000000
C    -0.491000000    -2.846000000     5.232000000
O     0.172000000    -2.307000000     6.272000000
C     1.535000000    -2.106000000     6.277000000
C     1.970000000    -0.772000000     5.977000000
H     1.206000000    -0.095000000     5.603000000
C     2.488000000    -3.154000000     6.724000000
H     2.115000000    -4.120000000     7.055000000
C     3.824000000    -2.754000000     6.789000000
H     4.557000000    -3.485000000     7.121000000
C     4.245000000    -1.442000000     6.497000000
H     5.289000000    -1.152000000     6.589000000
C     3.316000000    -0.469000000     6.072000000
O     3.730000000     0.806000000     5.744000000
C     4.184000000     1.252000000     4.535000000
C     4.504000000     2.590000000     4.363000000
H     4.645000000     3.241000000     5.222000000
C     4.619000000     3.123000000     3.091000000
O     4.833000000     4.499000000     2.959000000
C     4.362000000     5.270000000     1.890000000
C     3.016000000     5.372000000     1.552000000
H     2.225000000     4.897000000     2.127000000
C     5.301000000     6.034000000     1.176000000
H     6.343000000     5.991000000     1.480000000
C     4.876000000     6.871000000     0.174000000
H     5.587000000     7.410000000    -0.447000000
C     3.523000000     6.889000000    -0.221000000
H     3.113000000     7.611000000    -0.923000000
C     2.641000000     6.155000000     0.519000000
O     1.276000000     6.260000000     0.225000000
C     0.599000000     5.754000000    -0.843000000
C    -0.743000000     6.076000000    -1.062000000
H    -1.308000000     6.825000000    -0.514000000
C    -1.453000000     5.446000000    -2.082000000
O    -2.702000000     5.956000000    -2.339000000
C    -3.709000000     5.133000000    -2.675000000
C    -4.292000000     4.406000000    -1.679000000
H    -3.970000000     4.505000000    -0.646000000
C    -4.131000000     5.095000000    -3.995000000
H    -3.568000000     5.584000000    -4.786000000
C    -5.136000000     4.196000000    -4.310000000
H    -5.466000000     4.062000000    -5.337000000
C    -5.802000000     3.559000000    -3.277000000
H    -6.725000000     3.002000000    -3.413000000
C    -5.372000000     3.616000000    -1.969000000
O    -5.974000000     2.819000000    -0.955000000
C    -5.738000000     1.403000000    -0.937000000
C    -6.531000000     0.673000000    -0.137000000
H    -7.353000000     1.137000000     0.402000000
C    -6.339000000    -0.745000000     0.034000000
O    -7.026000000    -1.513000000     0.915000000
C    -6.441000000    -2.533000000     1.740000000
C    -6.847000000    -3.833000000     1.521000000
H    -7.642000000    -4.054000000     0.814000000
C    -6.290000000    -4.865000000     2.324000000
H    -6.657000000    -5.877000000     2.177000000
C    -5.310000000    -4.515000000     3.253000000
H    -4.949000000    -5.251000000     3.967000000
C    -4.933000000    -3.182000000     3.418000000
C    -5.402000000    -2.167000000     2.575000000
H    -5.042000000    -1.141000000     2.603000000
C    -2.762000000     0.682000000     1.321000000
H    -3.814000000     0.893000000     1.145000000
C    -1.724000000     0.703000000     0.389000000
H    -1.978000000     0.980000000    -0.631000000
C    -0.432000000     0.207000000     0.657000000
H     0.391000000     0.133000000    -0.090000000
C    -0.131000000    -0.258000000     1.911000000
H     0.863000000    -0.641000000     2.130000000
C    -1.150000000    -0.173000000     2.876000000
H    -0.981000000    -0.464000000     3.910000000
C    -2.360000000     0.415000000     2.595000000
C    -3.347000000     0.685000000     3.754000000
O    -3.014000000     0.612000000     4.949000000
O    -4.403000000     1.192000000     3.480000000
O    -0.596000000     2.794000000     2.229000000
H    -0.516000000     1.938000000     1.808000000
H    -0.374000000     2.632000000     3.146000000
O    -8.772000000     0.606000000     2.276000000
H    -9.416000000     1.297000000     2.430000000
H    -8.096000000     0.756000000     2.937000000
O    -6.108000000     5.124000000     6.191000000
H    -5.703000000     5.587000000     5.457000000
H    -5.796000000     4.223000000     6.107000000
O    -0.812000000     2.123000000     4.941000000
H    -1.564000000     1.543000000     4.820000000
H    -0.744000000     2.231000000     5.890000000
O    -2.441000000    -0.295000000     7.840000000
H    -2.250000000    -0.037000000     6.938000000
H    -2.113000000     0.431000000     8.371000000
O    -2.493000000     4.163000000     4.355000000
H    -2.462000000     4.064000000     3.403000000
H    -1.732000000     3.675000000     4.671000000
O    -2.536000000     4.854000000     1.500000000
H    -1.816000000     5.333000000     1.910000000
H    -2.166000000     3.995000000     1.296000000
O    -5.161000000    -0.622000000     5.931000000
H    -4.445000000    -0.176000000     5.479000000
H    -4.759000000    -0.977000000     6.724000000
O     1.260000000     4.394000000     5.527000000
H     0.400000000     4.450000000     5.110000000
H     1.236000000     3.572000000     6.017000000
O    -7.063000000     0.521000000     4.414000000
H    -6.959000000     0.232000000     5.321000000
H    -6.176000000     0.738000000     4.128000000
O    -0.242000000     2.132000000     7.774000000
H     0.538000000     1.742000000     8.168000000
H    -0.494000000     2.828000000     8.381000000
O    -5.494000000     3.525000000     2.707000000
H    -5.227000000     2.689000000     3.089000000
H    -4.671000000     3.984000000     2.539000000
O    -8.925000000     2.249000000     6.514000000
H    -8.766000000     2.438000000     5.589000000
H    -9.167000000     3.093000000     6.893000000
O    -4.956000000     3.027000000     8.955000000
H    -5.731000000     2.486000000     8.800000000
H    -4.521000000     3.071000000     8.104000000
O    -7.869000000     4.639000000     1.775000000
H    -7.194000000     4.068000000     2.140000000
H    -7.945000000     4.368000000     0.860000000
O    -4.426000000     6.588000000     2.064000000
H    -4.558000000     6.476000000     3.006000000
H    -3.870000000     5.852000000     1.811000000
O    -9.485000000    -1.658000000     3.615000000
H    -9.482000000    -1.397000000     4.536000000
H    -9.011000000    -0.957000000     3.167000000
O    -4.290000000     2.884000000     6.342000000
H    -4.434000000     2.182000000     5.707000000
H    -3.583000000     3.407000000     5.965000000
O    -6.297000000    -3.587000000     6.545000000
H    -5.761000000    -3.337000000     5.793000000
H    -6.492000000    -2.759000000     6.985000000
