215
-1421.09445
C     4.264000000     2.249000000     2.545000000
H     4.422000000     2.795000000     1.618000000
C     4.254000000     0.822000000     2.591000000
C     4.083000000     0.248000000     3.822000000
H     3.946000000    -0.823000000     3.947000000
C     4.287000000     0.078000000     1.301000000
O     4.984000000     0.754000000     0.226000000
H     3.220000000    -0.058000000     1.074000000
O     4.892000000    -1.236000000     1.493000000
C     4.153000000    -2.224000000     0.901000000
C     3.292000000    -2.970000000     1.618000000
H     3.238000000    -2.589000000     2.635000000
C     2.383000000    -3.836000000     1.018000000
O     1.364000000    -4.405000000     1.684000000
C     2.461000000    -4.100000000    -0.327000000
C     1.639000000    -5.149000000    -1.032000000
H     2.283000000    -5.499000000    -1.842000000
C     0.333000000    -4.604000000    -1.569000000
C     0.234000000    -4.142000000    -2.859000000
H     1.116000000    -4.125000000    -3.494000000
H     1.527000000    -5.974000000    -0.325000000
C     3.418000000    -3.390000000    -1.052000000
H     3.654000000    -3.624000000    -2.087000000
C     4.274000000    -2.386000000    -0.432000000
C     5.339000000    -1.603000000    -1.253000000
H     5.697000000    -2.315000000    -2.000000000
H     6.272000000    -1.396000000    -0.724000000
C     4.575000000    -0.378000000    -1.753000000
C     3.974000000    -0.368000000    -3.004000000
H     4.249000000    -1.189000000    -3.661000000
C     4.431000000     0.722000000    -0.995000000
C     3.661000000     1.854000000    -1.426000000
H     3.608000000     2.692000000    -0.735000000
C     3.036000000     1.749000000    -2.660000000
O     2.155000000     2.806000000    -3.049000000
C     0.741000000     2.688000000    -3.015000000
C     0.069000000     3.875000000    -2.331000000
C    -1.018000000     4.575000000    -2.891000000
H    -1.498000000     4.313000000    -3.831000000
C     0.544000000     4.146000000    -1.066000000
H     1.270000000     3.509000000    -0.567000000
O     0.232000000     2.454000000    -4.348000000
H     0.438000000     1.807000000    -2.429000000
C     3.183000000     0.663000000    -3.464000000
C     2.499000000     0.520000000    -4.797000000
H     2.931000000    -0.324000000    -5.338000000
H     2.682000000     1.403000000    -5.413000000
C     1.029000000     0.252000000    -4.867000000
C     0.628000000    -1.076000000    -4.985000000
H     1.400000000    -1.824000000    -5.148000000
C     0.005000000     1.182000000    -4.601000000
C    -1.311000000     0.823000000    -4.501000000
H    -2.083000000     1.532000000    -4.214000000
C    -1.603000000    -0.544000000    -4.466000000
O    -2.880000000    -0.866000000    -4.157000000
C    -3.061000000    -1.297000000    -2.810000000
C    -4.248000000    -0.598000000    -2.144000000
C    -4.716000000     0.615000000    -2.604000000
H    -4.432000000     0.987000000    -3.585000000
C    -4.663000000    -0.916000000    -0.849000000
H    -4.311000000    -1.823000000    -0.364000000
O    -3.182000000    -2.727000000    -2.802000000
H    -2.142000000    -0.994000000    -2.287000000
C    -0.678000000    -1.511000000    -4.763000000
C    -1.008000000    -2.975000000    -4.775000000
H    -0.250000000    -3.386000000    -5.444000000
H    -1.922000000    -3.043000000    -5.369000000
C    -0.928000000    -3.582000000    -3.357000000
C    -2.019000000    -3.432000000    -2.465000000
C    -1.926000000    -3.892000000    -1.153000000
H    -2.772000000    -3.794000000    -0.477000000
C    -0.745000000    -4.467000000    -0.765000000
O    -0.712000000    -4.648000000     0.596000000
C     0.045000000    -3.809000000     1.398000000
H     0.172000000    -2.857000000     0.862000000
C    -0.715000000    -3.578000000     2.753000000
C     0.098000000    -3.413000000     3.881000000
H     1.179000000    -3.513000000     3.825000000
C    -2.081000000    -3.632000000     2.799000000
H    -2.691000000    -3.900000000     1.941000000
C    -2.709000000    -3.460000000     3.987000000
O    -4.083000000    -3.660000000     4.076000000
C    -1.970000000    -3.273000000     5.159000000
H    -2.534000000    -3.167000000     6.082000000
C    -0.594000000    -3.112000000     5.121000000
O     0.068000000    -2.754000000     6.136000000
C     1.368000000    -2.356000000     6.248000000
C     1.944000000    -1.086000000     6.127000000
H     1.491000000    -0.179000000     5.735000000
C     2.165000000    -3.388000000     6.769000000
H     1.691000000    -4.348000000     6.958000000
C     3.532000000    -3.089000000     7.155000000
H     4.162000000    -3.868000000     7.578000000
C     4.059000000    -1.816000000     7.037000000
H     5.072000000    -1.557000000     7.333000000
C     3.305000000    -0.829000000     6.391000000
O     3.813000000     0.403000000     6.209000000
C     3.997000000     1.057000000     5.012000000
C     4.239000000     2.418000000     4.944000000
H     4.433000000     3.026000000     5.823000000
C     4.214000000     3.031000000     3.672000000
O     4.296000000     4.384000000     3.594000000
C     3.702000000     5.193000000     2.655000000
C     2.371000000     4.970000000     2.193000000
H     1.906000000     4.146000000     2.727000000
C     4.371000000     6.273000000     2.147000000
H     5.396000000     6.494000000     2.432000000
C     3.872000000     7.043000000     1.131000000
H     4.429000000     7.948000000     0.902000000
C     2.501000000     6.846000000     0.700000000
H     2.140000000     7.401000000    -0.162000000
C     1.754000000     5.778000000     1.236000000
O     0.400000000     5.486000000     0.858000000
C    -0.033000000     5.216000000    -0.396000000
C    -1.120000000     5.867000000    -0.910000000
H    -1.739000000     6.470000000    -0.251000000
C    -1.671000000     5.455000000    -2.148000000
O    -2.832000000     6.020000000    -2.475000000
C    -3.857000000     5.378000000    -3.012000000
C    -4.371000000     4.158000000    -2.490000000
H    -4.056000000     3.794000000    -1.515000000
C    -4.391000000     5.794000000    -4.269000000
H    -4.097000000     6.754000000    -4.685000000
C    -5.484000000     5.167000000    -4.837000000
H    -5.938000000     5.576000000    -5.736000000
C    -6.036000000     4.079000000    -4.201000000
H    -6.949000000     3.617000000    -4.570000000
C    -5.483000000     3.546000000    -3.071000000
O    -6.215000000     2.500000000    -2.562000000
C    -5.610000000     1.425000000    -1.934000000
C    -6.180000000     1.048000000    -0.723000000
H    -6.979000000     1.685000000    -0.353000000
C    -5.696000000    -0.154000000    -0.218000000
O    -6.115000000    -0.633000000     0.974000000
C    -5.969000000    -1.966000000     1.399000000
C    -6.842000000    -2.925000000     0.998000000
H    -7.539000000    -2.769000000     0.179000000
C    -6.692000000    -4.215000000     1.649000000
H    -7.269000000    -5.057000000     1.277000000
C    -5.731000000    -4.479000000     2.600000000
H    -5.552000000    -5.477000000     2.992000000
C    -4.977000000    -3.435000000     3.107000000
C    -5.141000000    -2.210000000     2.535000000
H    -4.450000000    -1.443000000     2.876000000
C    -1.999000000     1.273000000     0.626000000
H    -2.937000000     1.769000000     0.393000000
C    -0.999000000     1.008000000    -0.317000000
H    -1.179000000     1.299000000    -1.349000000
C     0.096000000     0.201000000    -0.022000000
H     0.834000000    -0.122000000    -0.827000000
C     0.230000000    -0.171000000     1.326000000
H     1.070000000    -0.765000000     1.675000000
C    -0.708000000     0.271000000     2.288000000
H    -0.591000000    -0.111000000     3.299000000
C    -1.834000000     1.083000000     1.936000000
C    -2.961000000     1.414000000     2.955000000
O    -2.845000000     1.185000000     4.134000000
O    -3.879000000     2.100000000     2.628000000
O    -2.361000000     5.915000000     2.339000000
H    -2.607000000     6.279000000     3.189000000
H    -1.404000000     5.901000000     2.352000000
O    -2.099000000     6.676000000     5.112000000
H    -2.910000000     6.451000000     5.568000000
H    -1.406000000     6.453000000     5.733000000
O    -6.163000000     5.896000000     4.351000000
H    -6.082000000     5.967000000     5.302000000
H    -5.418000000     5.356000000     4.087000000
O    -0.435000000     1.436000000     9.582000000
H    -1.359000000     1.392000000     9.335000000
H    -0.030000000     0.700000000     9.124000000
O    -1.677000000     2.723000000     6.162000000
H    -2.146000000     2.183000000     5.526000000
H    -2.367000000     3.149000000     6.670000000
O    -3.567000000    -0.639000000     7.079000000
H    -2.747000000    -0.160000000     6.958000000
H    -4.150000000    -0.290000000     6.405000000
O    -4.091000000     4.189000000     4.419000000
H    -4.099000000     3.321000000     4.017000000
H    -3.212000000     4.526000000     4.247000000
O    -6.163000000    -2.213000000     6.445000000
H    -5.558000000    -2.122000000     7.181000000
H    -5.801000000    -1.645000000     5.765000000
O     1.219000000     3.533000000     7.031000000
H     0.404000000     3.134000000     6.726000000
H     1.726000000     2.802000000     7.385000000
O    -9.536000000     1.985000000     0.447000000
H    -9.072000000     2.717000000     0.854000000
H   -10.140000000     2.398000000    -0.170000000
O    -8.296000000     3.734000000     2.128000000
H    -7.887000000     2.885000000     2.298000000
H    -8.877000000     3.874000000     2.875000000
O    -3.413000000     1.623000000     8.940000000
H    -3.878000000     0.814000000     8.727000000
H    -3.921000000     2.312000000     8.510000000
O    -4.253000000     4.474000000     0.923000000
H    -4.382000000     3.821000000     1.611000000
H    -3.477000000     4.961000000     1.198000000
O    -0.135000000     5.881000000     6.940000000
H     0.327000000     5.044000000     6.897000000
H     0.038000000     6.206000000     7.823000000
O    -6.510000000     5.931000000     0.567000000
H    -5.683000000     5.465000000     0.688000000
H    -7.143000000     5.435000000     1.086000000
O    -4.827000000     3.707000000     7.029000000
H    -5.610000000     4.150000000     7.357000000
H    -4.711000000     4.051000000     6.144000000
O    -6.379000000     1.643000000     2.692000000
H    -6.468000000     1.239000000     1.829000000
H    -5.457000000     1.894000000     2.745000000
O    -3.484000000    -3.151000000     8.714000000
H    -3.127000000    -2.877000000     9.559000000
H    -3.567000000    -2.339000000     8.215000000
O    -5.074000000     0.051000000     4.792000000
H    -5.721000000     0.625000000     4.380000000
H    -4.229000000     0.434000000     4.557000000
