215
-1435.47792
C     4.184000000     2.470000000     2.781000000
H     4.660000000     3.009000000     1.966000000
C     3.903000000     1.164000000     2.748000000
C     3.134000000     0.679000000     3.826000000
H     2.696000000    -0.314000000     3.771000000
C     4.053000000     0.385000000     1.529000000
O     4.978000000     0.998000000     0.587000000
H     3.004000000     0.338000000     1.203000000
O     4.473000000    -0.987000000     1.827000000
C     3.990000000    -2.097000000     1.139000000
C     3.049000000    -2.842000000     1.790000000
H     2.626000000    -2.602000000     2.763000000
C     2.366000000    -3.793000000     1.021000000
O     1.291000000    -4.392000000     1.619000000
C     2.662000000    -4.032000000    -0.340000000
C     1.853000000    -5.030000000    -1.155000000
H     2.439000000    -5.290000000    -2.038000000
C     0.585000000    -4.393000000    -1.578000000
C     0.490000000    -3.911000000    -2.861000000
H     1.363000000    -3.958000000    -3.506000000
H     1.728000000    -6.012000000    -0.694000000
C     3.655000000    -3.240000000    -1.000000000
H     3.928000000    -3.240000000    -2.053000000
C     4.328000000    -2.313000000    -0.198000000
C     5.425000000    -1.480000000    -1.010000000
H     5.976000000    -2.127000000    -1.696000000
H     6.147000000    -1.189000000    -0.244000000
C     4.829000000    -0.224000000    -1.640000000
C     4.302000000    -0.200000000    -2.917000000
H     4.521000000    -1.049000000    -3.559000000
C     4.643000000     0.919000000    -0.785000000
C     3.921000000     2.003000000    -1.282000000
H     3.778000000     2.895000000    -0.678000000
C     3.465000000     2.068000000    -2.564000000
O     2.593000000     3.030000000    -2.944000000
C     1.229000000     2.753000000    -2.891000000
C     0.361000000     3.677000000    -2.030000000
C    -0.815000000     4.304000000    -2.605000000
H    -1.059000000     4.309000000    -3.664000000
C     0.720000000     4.075000000    -0.709000000
H     1.633000000     3.646000000    -0.305000000
O     0.704000000     2.696000000    -4.251000000
H     1.038000000     1.708000000    -2.606000000
C     3.604000000     0.918000000    -3.353000000
C     2.946000000     0.820000000    -4.741000000
H     3.578000000     0.184000000    -5.364000000
H     2.966000000     1.837000000    -5.139000000
C     1.451000000     0.364000000    -4.776000000
C     1.103000000    -1.005000000    -4.830000000
H     1.813000000    -1.820000000    -4.942000000
C     0.449000000     1.365000000    -4.755000000
C    -0.908000000     0.951000000    -4.691000000
H    -1.680000000     1.692000000    -4.505000000
C    -1.259000000    -0.424000000    -4.671000000
O    -2.564000000    -0.765000000    -4.382000000
C    -2.700000000    -1.196000000    -2.967000000
C    -3.774000000    -0.462000000    -2.217000000
C    -4.457000000     0.598000000    -2.765000000
H    -4.078000000     1.014000000    -3.695000000
C    -4.370000000    -1.012000000    -1.032000000
H    -3.900000000    -1.868000000    -0.554000000
O    -2.985000000    -2.621000000    -2.953000000
H    -1.742000000    -1.070000000    -2.440000000
C    -0.289000000    -1.382000000    -4.838000000
C    -0.564000000    -2.858000000    -4.841000000
H     0.169000000    -3.417000000    -5.426000000
H    -1.478000000    -2.924000000    -5.435000000
C    -0.678000000    -3.417000000    -3.400000000
C    -1.858000000    -3.425000000    -2.623000000
C    -1.830000000    -4.015000000    -1.413000000
H    -2.731000000    -4.016000000    -0.804000000
C    -0.609000000    -4.429000000    -0.847000000
O    -0.722000000    -4.816000000     0.468000000
C    -0.090000000    -3.927000000     1.440000000
H    -0.048000000    -2.878000000     1.111000000
C    -0.810000000    -3.940000000     2.766000000
C    -0.193000000    -3.637000000     3.963000000
H     0.890000000    -3.572000000     3.907000000
C    -2.218000000    -4.157000000     2.810000000
H    -2.675000000    -4.503000000     1.886000000
C    -2.931000000    -3.934000000     3.976000000
O    -4.310000000    -4.099000000     3.958000000
C    -2.308000000    -3.656000000     5.163000000
H    -2.825000000    -3.543000000     6.113000000
C    -0.948000000    -3.564000000     5.153000000
O    -0.316000000    -3.230000000     6.342000000
C     0.913000000    -2.583000000     6.362000000
C     1.029000000    -1.202000000     6.214000000
H     0.104000000    -0.632000000     6.183000000
C     2.109000000    -3.272000000     6.512000000
H     2.097000000    -4.328000000     6.769000000
C     3.316000000    -2.656000000     6.423000000
H     4.199000000    -3.270000000     6.582000000
C     3.447000000    -1.283000000     6.381000000
H     4.396000000    -0.762000000     6.469000000
C     2.252000000    -0.578000000     6.320000000
O     2.278000000     0.797000000     6.053000000
C     2.844000000     1.336000000     4.942000000
C     3.311000000     2.638000000     5.051000000
H     3.199000000     3.121000000     6.018000000
C     3.944000000     3.189000000     3.904000000
O     4.079000000     4.523000000     3.861000000
C     3.423000000     5.324000000     2.906000000
C     2.141000000     5.059000000     2.556000000
H     1.611000000     4.395000000     3.234000000
C     4.108000000     6.268000000     2.170000000
H     5.101000000     6.468000000     2.565000000
C     3.474000000     6.994000000     1.142000000
H     4.065000000     7.780000000     0.680000000
C     2.162000000     6.660000000     0.838000000
H     1.615000000     7.141000000     0.031000000
C     1.456000000     5.676000000     1.538000000
O     0.199000000     5.341000000     1.196000000
C    -0.105000000     4.935000000    -0.013000000
C    -1.323000000     5.361000000    -0.461000000
H    -1.973000000     5.963000000     0.169000000
C    -1.619000000     5.128000000    -1.810000000
O    -2.816000000     5.691000000    -2.338000000
C    -3.758000000     5.034000000    -3.025000000
C    -4.368000000     3.957000000    -2.508000000
H    -4.114000000     3.532000000    -1.540000000
C    -4.185000000     5.668000000    -4.163000000
H    -3.725000000     6.558000000    -4.585000000
C    -5.360000000     5.118000000    -4.870000000
H    -5.765000000     5.520000000    -5.795000000
C    -5.843000000     3.845000000    -4.416000000
H    -6.735000000     3.437000000    -4.883000000
C    -5.385000000     3.341000000    -3.181000000
O    -6.165000000     2.372000000    -2.569000000
C    -5.540000000     1.216000000    -2.106000000
C    -6.087000000     0.656000000    -0.933000000
H    -6.826000000     1.173000000    -0.326000000
C    -5.455000000    -0.403000000    -0.362000000
O    -5.828000000    -0.763000000     0.946000000
C    -5.774000000    -2.092000000     1.309000000
C    -6.534000000    -3.070000000     0.709000000
H    -7.195000000    -2.930000000    -0.143000000
C    -6.487000000    -4.400000000     1.149000000
H    -7.008000000    -5.131000000     0.536000000
C    -5.717000000    -4.787000000     2.186000000
H    -5.618000000    -5.817000000     2.520000000
C    -4.993000000    -3.751000000     2.804000000
C    -5.016000000    -2.423000000     2.391000000
H    -4.541000000    -1.645000000     2.985000000
C    -2.012000000     1.298000000     0.491000000
H    -2.888000000     1.928000000     0.358000000
C    -1.110000000     1.090000000    -0.550000000
H    -1.357000000     1.470000000    -1.538000000
C     0.031000000     0.358000000    -0.333000000
H     0.698000000     0.041000000    -1.202000000
C     0.304000000    -0.194000000     0.876000000
H     1.177000000    -0.823000000     1.032000000
C    -0.610000000     0.006000000     1.907000000
H    -0.318000000    -0.550000000     2.794000000
C    -1.752000000     0.752000000     1.748000000
C    -2.655000000     0.898000000     2.961000000
O    -2.366000000     0.395000000     4.024000000
O    -3.466000000     1.806000000     3.035000000
O    -3.174000000     5.036000000     5.121000000
H    -2.751000000     5.662000000     5.708000000
H    -2.790000000     5.216000000     4.263000000
O    -0.837000000     1.751000000     5.538000000
H    -1.403000000     1.241000000     4.958000000
H     0.048000000     1.445000000     5.339000000
O    -4.576000000    -0.137000000     8.024000000
H    -3.620000000    -0.138000000     7.975000000
H    -4.862000000    -0.016000000     7.118000000
O    -6.323000000     4.514000000     2.138000000
H    -5.417000000     4.248000000     1.981000000
H    -6.322000000     4.845000000     3.037000000
O    -3.867000000     2.390000000     5.942000000
H    -3.703000000     1.726000000     5.272000000
H    -3.424000000     3.174000000     5.617000000
O    -6.608000000    -2.604000000     5.794000000
H    -6.095000000    -3.408000000     5.876000000
H    -5.985000000    -1.955000000     5.466000000
O    -1.336000000     1.524000000     8.398000000
H    -1.539000000     1.647000000     7.470000000
H    -0.383000000     1.596000000     8.446000000
O    -5.913000000     5.416000000     4.613000000
H    -5.179000000     5.094000000     5.136000000
H    -6.691000000     5.126000000     5.089000000
O    -3.693000000     4.034000000     1.554000000
H    -3.518000000     3.315000000     2.160000000
H    -3.036000000     4.696000000     1.770000000
O    -2.051000000     5.891000000     2.715000000
H    -1.357000000     5.970000000     2.060000000
H    -2.469000000     6.752000000     2.727000000
O    -8.152000000     3.022000000     0.868000000
H    -7.427000000     3.292000000     1.431000000
H    -8.764000000     3.757000000     0.896000000
O    -4.295000000     2.967000000     8.362000000
H    -4.291000000     2.083000000     8.731000000
H    -4.258000000     2.831000000     7.415000000
O    -0.748000000     4.163000000     9.188000000
H    -0.667000000     4.269000000     8.240000000
H    -1.023000000     3.254000000     9.305000000
O     0.338000000     6.792000000     4.700000000
H     0.911000000     7.559000000     4.711000000
H    -0.284000000     6.969000000     3.994000000
O    -5.940000000     1.205000000     2.891000000
H    -6.084000000     0.519000000     2.239000000
H    -5.013000000     1.427000000     2.804000000
O    -9.527000000     0.289000000     1.199000000
H    -9.916000000     0.200000000     0.329000000
H    -9.096000000     1.144000000     1.182000000
O    -0.464000000     4.643000000     6.486000000
H    -0.077000000     5.296000000     5.903000000
H    -0.665000000     3.901000000     5.916000000
O    -6.780000000     2.372000000     5.506000000
H    -5.869000000     2.485000000     5.776000000
H    -6.734000000     1.809000000     4.734000000
O    -4.992000000    -0.258000000     5.113000000
H    -5.364000000     0.224000000     4.374000000
H    -4.058000000    -0.320000000     4.913000000
