215
-1458.01061
C     4.290000000     2.157000000     2.629000000
H     4.416000000     2.629000000     1.658000000
C     4.297000000     0.775000000     2.746000000
C     4.044000000     0.229000000     3.967000000
H     4.102000000    -0.850000000     4.083000000
C     4.238000000    -0.165000000     1.518000000
O     5.036000000     0.332000000     0.424000000
H     3.189000000    -0.207000000     1.188000000
O     4.614000000    -1.502000000     1.836000000
C     3.797000000    -2.469000000     1.365000000
C     2.729000000    -2.847000000     2.132000000
H     2.606000000    -2.505000000     3.157000000
C     1.768000000    -3.707000000     1.529000000
O     0.655000000    -4.112000000     2.231000000
C     1.938000000    -4.253000000     0.232000000
C     1.068000000    -5.312000000    -0.344000000
H     1.633000000    -5.942000000    -1.035000000
C    -0.242000000    -4.775000000    -1.017000000
C    -0.134000000    -4.456000000    -2.416000000
H     0.773000000    -4.650000000    -2.983000000
H     0.745000000    -5.997000000     0.442000000
C     3.093000000    -3.929000000    -0.437000000
H     3.315000000    -4.425000000    -1.379000000
C     3.987000000    -2.940000000     0.086000000
C     5.129000000    -2.342000000    -0.830000000
H     5.364000000    -3.141000000    -1.536000000
H     6.119000000    -2.168000000    -0.402000000
C     4.591000000    -1.062000000    -1.518000000
C     4.000000000    -1.186000000    -2.806000000
H     3.863000000    -2.146000000    -3.298000000
C     4.563000000     0.176000000    -0.892000000
C     4.093000000     1.261000000    -1.565000000
H     4.203000000     2.245000000    -1.118000000
C     3.445000000     1.147000000    -2.788000000
O     2.917000000     2.246000000    -3.330000000
C     1.459000000     2.379000000    -3.286000000
C     0.944000000     3.741000000    -2.779000000
C    -0.389000000     4.194000000    -3.091000000
H    -0.975000000     3.564000000    -3.755000000
C     1.731000000     4.488000000    -1.921000000
H     2.729000000     4.237000000    -1.570000000
O     0.834000000     2.062000000    -4.581000000
H     1.156000000     1.606000000    -2.565000000
C     3.452000000    -0.073000000    -3.458000000
C     2.862000000    -0.258000000    -4.831000000
H     3.203000000    -1.183000000    -5.301000000
H     3.178000000     0.526000000    -5.522000000
C     1.303000000    -0.407000000    -4.761000000
C     0.713000000    -1.675000000    -4.715000000
H     1.356000000    -2.531000000    -4.902000000
C     0.427000000     0.734000000    -4.610000000
C    -0.941000000     0.538000000    -4.391000000
H    -1.647000000     1.346000000    -4.214000000
C    -1.489000000    -0.711000000    -4.379000000
O    -2.779000000    -0.813000000    -3.981000000
C    -3.035000000    -1.165000000    -2.670000000
C    -4.197000000    -0.352000000    -2.147000000
C    -4.585000000     0.806000000    -2.846000000
H    -4.134000000     1.039000000    -3.807000000
C    -4.811000000    -0.716000000    -0.944000000
H    -4.387000000    -1.554000000    -0.397000000
O    -3.303000000    -2.613000000    -2.601000000
H    -2.213000000    -0.961000000    -1.969000000
C    -0.695000000    -1.837000000    -4.552000000
C    -1.177000000    -3.261000000    -4.394000000
H    -0.604000000    -3.905000000    -5.064000000
H    -2.213000000    -3.291000000    -4.739000000
C    -1.197000000    -3.718000000    -2.915000000
C    -2.277000000    -3.370000000    -2.106000000
C    -2.390000000    -3.763000000    -0.761000000
H    -3.282000000    -3.541000000    -0.180000000
C    -1.385000000    -4.455000000    -0.251000000
O    -1.363000000    -4.506000000     1.095000000
C    -0.555000000    -3.500000000     1.757000000
H    -0.318000000    -2.674000000     1.070000000
C    -1.350000000    -2.932000000     2.888000000
C    -0.732000000    -2.137000000     3.835000000
H     0.280000000    -1.830000000     3.584000000
C    -2.721000000    -3.184000000     3.022000000
H    -3.318000000    -3.649000000     2.242000000
C    -3.387000000    -2.828000000     4.179000000
O    -4.700000000    -3.076000000     4.294000000
C    -2.752000000    -2.155000000     5.175000000
H    -3.185000000    -2.063000000     6.168000000
C    -1.419000000    -1.829000000     5.005000000
O    -0.768000000    -0.977000000     5.902000000
C     0.465000000    -1.158000000     6.439000000
C     1.448000000    -0.176000000     6.257000000
H     1.331000000     0.819000000     5.835000000
C     0.884000000    -2.409000000     6.979000000
H     0.131000000    -3.165000000     7.183000000
C     2.163000000    -2.717000000     7.208000000
H     2.441000000    -3.723000000     7.510000000
C     3.121000000    -1.815000000     6.960000000
H     4.162000000    -2.094000000     7.100000000
C     2.776000000    -0.531000000     6.546000000
O     3.767000000     0.455000000     6.354000000
C     3.822000000     1.073000000     5.104000000
C     3.909000000     2.446000000     5.025000000
H     3.775000000     3.096000000     5.886000000
C     4.082000000     2.951000000     3.747000000
O     3.946000000     4.293000000     3.498000000
C     4.089000000     4.900000000     2.246000000
C     2.973000000     5.252000000     1.559000000
H     1.987000000     5.006000000     1.946000000
C     5.366000000     5.061000000     1.635000000
H     6.255000000     4.558000000     2.006000000
C     5.424000000     5.629000000     0.339000000
H     6.362000000     5.921000000    -0.125000000
C     4.257000000     6.121000000    -0.245000000
H     4.384000000     6.810000000    -1.076000000
C     3.033000000     5.911000000     0.316000000
O     1.963000000     6.369000000    -0.427000000
C     1.198000000     5.652000000    -1.294000000
C    -0.116000000     6.063000000    -1.573000000
H    -0.477000000     6.993000000    -1.143000000
C    -0.921000000     5.263000000    -2.431000000
O    -2.239000000     5.713000000    -2.668000000
C    -3.188000000     5.025000000    -3.390000000
C    -4.098000000     4.252000000    -2.799000000
H    -4.035000000     4.190000000    -1.715000000
C    -3.121000000     5.210000000    -4.714000000
H    -2.413000000     5.859000000    -5.224000000
C    -4.033000000     4.567000000    -5.559000000
H    -3.902000000     4.756000000    -6.621000000
C    -5.045000000     3.793000000    -4.919000000
H    -5.824000000     3.315000000    -5.508000000
C    -4.990000000     3.551000000    -3.570000000
O    -5.957000000     2.772000000    -2.924000000
C    -5.573000000     1.621000000    -2.300000000
C    -6.179000000     1.260000000    -1.082000000
H    -6.857000000     1.908000000    -0.533000000
C    -5.809000000     0.082000000    -0.459000000
O    -6.159000000    -0.075000000     0.838000000
C    -6.290000000    -1.251000000     1.551000000
C    -7.472000000    -1.906000000     1.385000000
H    -8.296000000    -1.647000000     0.725000000
C    -7.774000000    -3.021000000     2.179000000
H    -8.757000000    -3.480000000     2.246000000
C    -6.844000000    -3.456000000     3.097000000
H    -7.047000000    -4.329000000     3.710000000
C    -5.602000000    -2.778000000     3.240000000
C    -5.311000000    -1.662000000     2.409000000
H    -4.423000000    -1.040000000     2.489000000
C    -0.755000000     2.232000000    -0.025000000
H    -1.151000000     3.127000000    -0.498000000
C    -0.622000000     1.011000000    -0.761000000
H    -0.935000000     0.956000000    -1.801000000
C    -0.004000000    -0.084000000    -0.161000000
H    -0.024000000    -1.044000000    -0.717000000
C     0.486000000    -0.013000000     1.136000000
H     0.983000000    -0.900000000     1.519000000
C     0.385000000     1.155000000     1.847000000
H     0.687000000     1.153000000     2.891000000
C    -0.232000000     2.295000000     1.287000000
C    -0.186000000     3.615000000     2.062000000
O     0.136000000     3.718000000     3.222000000
O    -0.610000000     4.622000000     1.483000000
O     0.762000000     3.012000000     7.187000000
H     0.076000000     2.723000000     6.585000000
H     1.119000000     3.802000000     6.781000000
O     1.525000000     4.716000000     5.173000000
H     2.338000000     4.913000000     4.708000000
H     0.899000000     4.503000000     4.481000000
O     0.673000000    10.108000000     4.155000000
H     0.046000000    10.396000000     3.491000000
H     0.568000000     9.157000000     4.185000000
O    -0.825000000     2.283000000     5.271000000
H    -1.348000000     1.742000000     4.679000000
H    -0.451000000     2.961000000     4.708000000
O     3.028000000     8.779000000     1.667000000
H     2.515000000     9.372000000     1.118000000
H     2.580000000     7.936000000     1.595000000
O    -2.501000000     2.485000000     7.366000000
H    -2.374000000     1.715000000     7.921000000
H    -1.873000000     2.372000000     6.653000000
O    -1.999000000     4.992000000     4.280000000
H    -1.410000000     4.422000000     3.785000000
H    -2.063000000     5.787000000     3.752000000
O    -5.400000000     2.202000000     4.620000000
H    -5.030000000     2.864000000     5.205000000
H    -5.143000000     2.487000000     3.743000000
O    -6.713000000     6.463000000     3.487000000
H    -5.781000000     6.507000000     3.273000000
H    -7.032000000     7.356000000     3.354000000
O    -4.565000000     2.092000000     1.719000000
H    -5.308000000     1.489000000     1.752000000
H    -4.167000000     1.933000000     0.863000000
O    -0.603000000    10.486000000     1.816000000
H    -1.405000000    10.714000000     1.346000000
H    -0.041000000    10.088000000     1.151000000
O    -3.012000000     4.697000000     0.619000000
H    -2.091000000     4.578000000     0.850000000
H    -3.416000000     3.847000000     0.793000000
O    -0.586000000     5.956000000     6.494000000
H    -1.060000000     5.574000000     5.755000000
H     0.298000000     5.597000000     6.424000000
O    -3.948000000     6.925000000     2.771000000
H    -3.094000000     7.354000000     2.835000000
H    -3.836000000     6.270000000     2.082000000
O    -3.023000000     8.085000000    -0.929000000
H    -2.685000000     7.222000000    -1.169000000
H    -3.422000000     8.419000000    -1.732000000
O    -1.249000000     7.109000000     2.495000000
H    -0.887000000     6.527000000     1.828000000
H    -0.495000000     7.356000000     3.032000000
O     0.887000000     7.476000000     4.222000000
H     1.583000000     7.807000000     4.790000000
H     0.180000000     7.238000000     4.823000000
O     4.423000000     7.975000000     4.132000000
H     5.328000000     7.825000000     3.859000000
H     4.007000000     8.379000000     3.371000000
O    -3.976000000     4.475000000     6.062000000
H    -3.335000000     4.789000000     5.424000000
H    -3.472000000     3.915000000     6.653000000
