215
-1485.82257
C     4.578000000     2.386000000     1.677000000
H     4.761000000     2.470000000     0.609000000
C     4.318000000     1.113000000     2.125000000
C     4.016000000     0.889000000     3.448000000
H     3.598000000    -0.067000000     3.754000000
C     4.162000000    -0.052000000     1.088000000
O     5.132000000     0.073000000     0.013000000
H     3.131000000    -0.036000000     0.706000000
O     4.537000000    -1.328000000     1.745000000
C     3.820000000    -2.439000000     1.442000000
C     2.751000000    -2.723000000     2.306000000
H     2.660000000    -2.218000000     3.264000000
C     1.777000000    -3.698000000     1.969000000
O     0.767000000    -3.879000000     2.827000000
C     1.973000000    -4.579000000     0.862000000
C     0.947000000    -5.628000000     0.466000000
H     1.496000000    -6.349000000    -0.143000000
C    -0.234000000    -5.037000000    -0.266000000
C    -0.281000000    -4.841000000    -1.658000000
H     0.573000000    -5.131000000    -2.265000000
H     0.608000000    -6.173000000     1.350000000
C     2.914000000    -4.091000000    -0.063000000
H     2.914000000    -4.562000000    -1.043000000
C     3.826000000    -3.108000000     0.224000000
C     4.896000000    -2.635000000    -0.746000000
H     5.182000000    -3.482000000    -1.372000000
H     5.829000000    -2.461000000    -0.207000000
C     4.417000000    -1.479000000    -1.612000000
C     3.773000000    -1.690000000    -2.853000000
H     3.575000000    -2.730000000    -3.097000000
C     4.493000000    -0.147000000    -1.145000000
C     3.868000000     0.886000000    -1.807000000
H     3.875000000     1.865000000    -1.334000000
C     3.269000000     0.655000000    -3.045000000
O     2.704000000     1.693000000    -3.685000000
C     1.246000000     1.771000000    -3.568000000
C     0.769000000     3.181000000    -3.192000000
C    -0.577000000     3.490000000    -3.228000000
H    -1.252000000     2.746000000    -3.643000000
C     1.624000000     4.053000000    -2.502000000
H     2.605000000     3.747000000    -2.148000000
O     0.683000000     1.259000000    -4.804000000
H     0.960000000     1.120000000    -2.729000000
C     3.254000000    -0.662000000    -3.555000000
C     2.560000000    -0.955000000    -4.878000000
H     3.032000000    -1.822000000    -5.344000000
H     2.866000000    -0.119000000    -5.511000000
C     1.040000000    -1.109000000    -4.579000000
C     0.519000000    -2.401000000    -4.355000000
H     1.195000000    -3.251000000    -4.384000000
C     0.166000000    -0.063000000    -4.742000000
C    -1.187000000    -0.223000000    -4.579000000
H    -1.831000000     0.651000000    -4.520000000
C    -1.647000000    -1.440000000    -4.126000000
O    -2.933000000    -1.410000000    -3.745000000
C    -3.234000000    -1.540000000    -2.349000000
C    -4.442000000    -0.661000000    -1.911000000
C    -4.772000000     0.508000000    -2.613000000
H    -4.139000000     0.827000000    -3.437000000
C    -5.188000000    -0.952000000    -0.784000000
H    -4.964000000    -1.846000000    -0.208000000
O    -3.508000000    -2.952000000    -1.987000000
H    -2.375000000    -1.180000000    -1.764000000
C    -0.785000000    -2.573000000    -4.089000000
C    -1.275000000    -3.919000000    -3.710000000
H    -0.551000000    -4.632000000    -4.111000000
H    -2.230000000    -4.135000000    -4.195000000
C    -1.330000000    -4.123000000    -2.200000000
C    -2.399000000    -3.611000000    -1.447000000
C    -2.370000000    -3.904000000    -0.062000000
H    -3.175000000    -3.681000000     0.634000000
C    -1.313000000    -4.520000000     0.529000000
O    -1.287000000    -4.479000000     1.863000000
C    -0.490000000    -3.359000000     2.458000000
H    -0.310000000    -2.578000000     1.705000000
C    -1.162000000    -2.563000000     3.595000000
C    -0.514000000    -2.269000000     4.779000000
H     0.523000000    -2.566000000     4.917000000
C    -2.459000000    -2.098000000     3.439000000
H    -2.928000000    -2.165000000     2.461000000
C    -3.025000000    -1.234000000     4.403000000
O    -4.234000000    -0.617000000     4.275000000
C    -2.255000000    -0.765000000     5.502000000
H    -2.631000000    -0.004000000     6.181000000
C    -1.014000000    -1.349000000     5.676000000
O    -0.256000000    -0.987000000     6.788000000
C     1.125000000    -0.720000000     6.793000000
C     1.646000000     0.335000000     6.021000000
H     1.089000000     0.842000000     5.238000000
C     1.817000000    -1.260000000     7.850000000
H     1.338000000    -2.017000000     8.466000000
C     3.107000000    -0.863000000     8.129000000
H     3.673000000    -1.299000000     8.948000000
C     3.653000000     0.174000000     7.343000000
H     4.640000000     0.551000000     7.600000000
C     2.954000000     0.736000000     6.230000000
O     3.410000000     1.893000000     5.647000000
C     3.952000000     1.935000000     4.354000000
C     4.182000000     3.277000000     3.896000000
H     3.964000000     4.141000000     4.519000000
C     4.536000000     3.484000000     2.526000000
O     4.740000000     4.777000000     2.101000000
C     4.534000000     5.150000000     0.778000000
C     3.236000000     5.526000000     0.379000000
H     2.395000000     5.416000000     1.058000000
C     5.617000000     5.169000000    -0.086000000
H     6.610000000     4.971000000     0.311000000
C     5.421000000     5.540000000    -1.381000000
H     6.259000000     5.514000000    -2.072000000
C     4.220000000     5.930000000    -1.902000000
H     4.125000000     6.234000000    -2.942000000
C     3.140000000     5.936000000    -0.995000000
O     1.830000000     6.189000000    -1.314000000
C     1.118000000     5.331000000    -2.095000000
C    -0.184000000     5.709000000    -2.297000000
H    -0.562000000     6.645000000    -1.894000000
C    -1.069000000     4.803000000    -2.890000000
O    -2.373000000     5.167000000    -2.887000000
C    -3.287000000     4.554000000    -3.666000000
C    -4.252000000     3.796000000    -3.001000000
H    -4.310000000     3.818000000    -1.916000000
C    -3.372000000     4.631000000    -5.065000000
H    -2.605000000     5.213000000    -5.570000000
C    -4.310000000     3.883000000    -5.770000000
H    -4.092000000     3.692000000    -6.818000000
C    -5.304000000     3.182000000    -5.093000000
H    -6.012000000     2.579000000    -5.656000000
C    -5.253000000     3.079000000    -3.717000000
O    -6.269000000     2.433000000    -3.071000000
C    -5.966000000     1.204000000    -2.378000000
C    -6.744000000     0.781000000    -1.341000000
H    -7.616000000     1.381000000    -1.094000000
C    -6.314000000    -0.213000000    -0.477000000
O    -7.156000000    -0.613000000     0.526000000
C    -6.693000000    -1.166000000     1.702000000
C    -7.401000000    -2.233000000     2.248000000
H    -8.330000000    -2.524000000     1.766000000
C    -7.083000000    -2.742000000     3.501000000
H    -7.746000000    -3.504000000     3.904000000
C    -6.020000000    -2.204000000     4.289000000
H    -5.767000000    -2.626000000     5.258000000
C    -5.277000000    -1.219000000     3.688000000
C    -5.617000000    -0.705000000     2.451000000
H    -5.025000000     0.133000000     2.093000000
C    -0.997000000     2.027000000     0.243000000
H    -1.544000000     2.926000000    -0.031000000
C    -1.002000000     0.929000000    -0.585000000
H    -1.538000000     0.832000000    -1.526000000
C    -0.233000000    -0.161000000    -0.207000000
H    -0.122000000    -1.006000000    -0.895000000
C     0.474000000    -0.192000000     0.995000000
H     1.041000000    -1.035000000     1.381000000
C     0.369000000     0.890000000     1.859000000
H     0.990000000     0.813000000     2.748000000
C    -0.364000000     2.053000000     1.498000000
C    -0.484000000     3.238000000     2.393000000
O    -0.369000000     3.239000000     3.630000000
O    -0.865000000     4.283000000     1.896000000
O     2.218000000     3.236000000     8.416000000
H     2.195000000     4.193000000     8.424000000
H     2.100000000     3.002000000     7.495000000
O     0.642000000     4.091000000     5.922000000
H     1.526000000     4.389000000     5.708000000
H     0.260000000     3.849000000     5.078000000
O    -0.751000000     9.119000000     3.171000000
H    -0.581000000     9.212000000     2.234000000
H    -0.813000000     8.174000000     3.311000000
O    -6.072000000     4.780000000     5.162000000
H    -6.742000000     5.018000000     4.521000000
H    -6.181000000     5.416000000     5.869000000
O    -2.583000000     2.789000000     5.284000000
H    -2.157000000     3.578000000     5.620000000
H    -1.878000000     2.295000000     4.866000000
O    -2.266000000     3.396000000     8.562000000
H    -2.965000000     2.885000000     8.155000000
H    -2.663000000     3.758000000     9.355000000
O    -2.067000000     5.929000000     3.866000000
H    -1.663000000     5.335000000     3.233000000
H    -1.924000000     5.507000000     4.714000000
O    -4.521000000     3.360000000     3.540000000
H    -4.957000000     4.009000000     4.093000000
H    -3.917000000     2.910000000     4.131000000
O    -4.718000000     2.456000000     7.567000000
H    -4.612000000     2.860000000     6.706000000
H    -4.906000000     1.537000000     7.379000000
O     3.038000000     6.165000000     6.870000000
H     2.763000000     6.333000000     5.969000000
H     3.213000000     7.033000000     7.234000000
O    -4.297000000     3.776000000     0.649000000
H    -4.261000000     3.671000000     1.599000000
H    -4.969000000     3.156000000     0.365000000
O    -7.194000000     1.708000000     3.834000000
H    -6.400000000     2.212000000     3.656000000
H    -7.388000000     1.268000000     3.007000000
O    -2.538000000     5.786000000     0.586000000
H    -1.792000000     5.351000000     0.999000000
H    -3.180000000     5.088000000     0.456000000
O    -1.546000000     8.122000000     6.333000000
H    -1.607000000     7.262000000     6.747000000
H    -1.953000000     8.004000000     5.474000000
O    -4.607000000     6.815000000     2.694000000
H    -4.160000000     6.445000000     1.933000000
H    -4.090000000     6.519000000     3.443000000
O    -3.234000000     7.656000000    -1.024000000
H    -2.926000000     6.849000000    -0.613000000
H    -3.246000000     7.459000000    -1.961000000
O     0.255000000     6.681000000     1.951000000
H    -0.272000000     5.891000000     2.062000000
H     0.763000000     6.520000000     1.156000000
O     2.651000000     6.663000000     4.228000000
H     1.783000000     7.013000000     4.027000000
H     3.258000000     7.271000000     3.805000000
O    -1.804000000     5.175000000     6.705000000
H    -2.007000000     4.570000000     7.419000000
H    -0.900000000     4.970000000     6.467000000
