215
-1451.55751
C     5.049000000     1.282000000     1.672000000
H     5.561000000     1.344000000     0.715000000
C     4.475000000     0.139000000     2.124000000
C     3.876000000     0.205000000     3.379000000
H     3.391000000    -0.672000000     3.799000000
C     4.126000000    -1.038000000     1.297000000
O     5.062000000    -1.213000000     0.161000000
H     3.152000000    -0.780000000     0.857000000
O     3.959000000    -2.263000000     2.030000000
C     3.007000000    -3.155000000     1.619000000
C     1.960000000    -3.239000000     2.488000000
H     1.981000000    -2.627000000     3.386000000
C     0.856000000    -4.099000000     2.218000000
O    -0.186000000    -3.885000000     3.087000000
C     0.839000000    -4.893000000     1.111000000
C    -0.455000000    -5.556000000     0.809000000
H    -0.284000000    -6.461000000     0.221000000
C    -1.448000000    -4.592000000     0.021000000
C    -1.564000000    -4.612000000    -1.391000000
H    -0.873000000    -5.211000000    -1.980000000
H    -0.977000000    -5.969000000     1.674000000
C     1.959000000    -4.816000000     0.228000000
H     1.972000000    -5.407000000    -0.684000000
C     3.003000000    -3.915000000     0.446000000
C     4.163000000    -3.846000000    -0.556000000
H     4.241000000    -4.783000000    -1.111000000
H     5.102000000    -3.799000000     0.000000000
C     4.045000000    -2.638000000    -1.455000000
C     3.313000000    -2.613000000    -2.653000000
H     3.015000000    -3.590000000    -3.027000000
C     4.494000000    -1.396000000    -1.061000000
C     4.406000000    -0.282000000    -1.861000000
H     4.582000000     0.700000000    -1.432000000
C     3.577000000    -0.340000000    -3.017000000
O     3.161000000     0.887000000    -3.583000000
C     1.776000000     1.115000000    -3.457000000
C     1.398000000     2.575000000    -3.138000000
C     0.341000000     3.250000000    -3.754000000
H    -0.228000000     2.796000000    -4.561000000
C     2.155000000     3.298000000    -2.171000000
H     2.824000000     2.850000000    -1.440000000
O     1.134000000     0.739000000    -4.626000000
H     1.361000000     0.597000000    -2.580000000
C     3.160000000    -1.556000000    -3.454000000
C     2.317000000    -1.717000000    -4.755000000
H     2.635000000    -2.641000000    -5.244000000
H     2.671000000    -0.971000000    -5.470000000
C     0.810000000    -1.627000000    -4.634000000
C    -0.055000000    -2.678000000    -4.283000000
H     0.289000000    -3.707000000    -4.353000000
C     0.277000000    -0.363000000    -4.461000000
C    -1.057000000    -0.149000000    -4.174000000
H    -1.483000000     0.848000000    -4.102000000
C    -1.932000000    -1.200000000    -3.976000000
O    -3.211000000    -0.861000000    -3.547000000
C    -3.530000000    -0.734000000    -2.223000000
C    -4.521000000     0.442000000    -1.865000000
C    -4.557000000     1.509000000    -2.746000000
H    -3.977000000     1.576000000    -3.662000000
C    -5.198000000     0.500000000    -0.666000000
H    -5.317000000    -0.359000000    -0.010000000
O    -4.118000000    -1.979000000    -1.843000000
H    -2.597000000    -0.574000000    -1.661000000
C    -1.384000000    -2.526000000    -3.960000000
C    -2.397000000    -3.615000000    -3.534000000
H    -2.131000000    -4.576000000    -3.978000000
H    -3.339000000    -3.412000000    -4.048000000
C    -2.499000000    -3.808000000    -2.068000000
C    -3.279000000    -2.919000000    -1.270000000
C    -3.270000000    -2.890000000     0.166000000
H    -3.892000000    -2.170000000     0.691000000
C    -2.272000000    -3.723000000     0.756000000
O    -2.295000000    -3.684000000     2.160000000
C    -1.236000000    -2.963000000     2.717000000
H    -0.949000000    -2.213000000     1.965000000
C    -1.735000000    -2.205000000     3.964000000
C    -0.827000000    -2.040000000     5.052000000
H     0.162000000    -2.468000000     4.909000000
C    -2.829000000    -1.394000000     3.789000000
H    -3.467000000    -1.539000000     2.920000000
C    -3.133000000    -0.480000000     4.786000000
O    -4.253000000     0.256000000     4.681000000
C    -2.451000000    -0.394000000     5.990000000
H    -2.798000000     0.244000000     6.799000000
C    -1.211000000    -1.134000000     6.118000000
O    -0.362000000    -0.842000000     7.206000000
C     0.993000000    -0.783000000     7.065000000
C     1.499000000     0.348000000     6.378000000
H     0.809000000     1.139000000     6.093000000
C     1.888000000    -1.818000000     7.460000000
H     1.469000000    -2.737000000     7.862000000
C     3.220000000    -1.639000000     7.431000000
H     3.842000000    -2.491000000     7.692000000
C     3.738000000    -0.616000000     6.637000000
H     4.791000000    -0.678000000     6.375000000
C     2.845000000     0.352000000     6.068000000
O     3.272000000     1.444000000     5.346000000
C     3.935000000     1.363000000     4.169000000
C     4.614000000     2.458000000     3.691000000
H     4.673000000     3.401000000     4.229000000
C     5.094000000     2.446000000     2.442000000
O     5.758000000     3.645000000     2.045000000
C     5.482000000     4.175000000     0.810000000
C     4.226000000     4.607000000     0.489000000
H     3.420000000     4.624000000     1.218000000
C     6.526000000     4.164000000    -0.158000000
H     7.538000000     3.808000000     0.020000000
C     6.319000000     4.649000000    -1.418000000
H     7.134000000     4.496000000    -2.122000000
C     5.018000000     5.001000000    -1.753000000
H     4.851000000     5.329000000    -2.776000000
C     3.987000000     5.118000000    -0.799000000
O     2.714000000     5.507000000    -1.188000000
C     1.933000000     4.663000000    -1.982000000
C     0.889000000     5.241000000    -2.667000000
H     0.677000000     6.290000000    -2.473000000
C     0.082000000     4.551000000    -3.519000000
O    -0.808000000     5.255000000    -4.235000000
C    -2.030000000     4.758000000    -4.646000000
C    -2.914000000     4.412000000    -3.700000000
H    -2.631000000     4.387000000    -2.651000000
C    -2.449000000     4.954000000    -6.001000000
H    -1.780000000     5.258000000    -6.801000000
C    -3.743000000     4.707000000    -6.434000000
H    -4.084000000     4.907000000    -7.447000000
C    -4.655000000     4.349000000    -5.479000000
H    -5.708000000     4.271000000    -5.739000000
C    -4.235000000     4.104000000    -4.142000000
O    -5.221000000     3.846000000    -3.239000000
C    -5.250000000     2.723000000    -2.390000000
C    -5.863000000     2.745000000    -1.177000000
H    -6.466000000     3.614000000    -0.924000000
C    -5.906000000     1.670000000    -0.345000000
O    -6.643000000     1.603000000     0.761000000
C    -6.538000000     0.831000000     1.887000000
C    -7.374000000    -0.264000000     2.003000000
H    -8.127000000    -0.460000000     1.243000000
C    -7.236000000    -1.143000000     3.098000000
H    -7.850000000    -2.037000000     3.176000000
C    -6.204000000    -0.987000000     4.032000000
H    -6.107000000    -1.699000000     4.848000000
C    -5.274000000     0.050000000     3.800000000
C    -5.426000000     0.965000000     2.735000000
H    -4.748000000     1.812000000     2.668000000
C    -0.494000000     2.441000000     0.344000000
H    -0.791000000     3.399000000    -0.075000000
C    -0.701000000     1.232000000    -0.361000000
H    -1.269000000     1.293000000    -1.286000000
C    -0.237000000     0.012000000     0.116000000
H    -0.296000000    -0.798000000    -0.554000000
C     0.494000000    -0.005000000     1.334000000
H     0.904000000    -0.925000000     1.742000000
C     0.707000000     1.208000000     2.010000000
H     1.310000000     1.221000000     2.915000000
C     0.196000000     2.427000000     1.538000000
C     0.519000000     3.699000000     2.231000000
O     1.048000000     3.821000000     3.286000000
O     0.224000000     4.761000000     1.676000000
O     2.302000000     4.089000000     5.433000000
H     2.367000000     3.200000000     5.780000000
H     1.901000000     3.981000000     4.570000000
O    -0.842000000     3.287000000     5.323000000
H    -1.653000000     3.251000000     4.815000000
H    -0.154000000     3.405000000     4.669000000
O     2.217000000     9.728000000     1.272000000
H     3.172000000     9.729000000     1.336000000
H     2.024000000     9.088000000     0.586000000
O    -1.120000000     7.811000000     6.694000000
H    -1.380000000     8.568000000     7.218000000
H    -1.931000000     7.321000000     6.562000000
O    -1.105000000     6.172000000     3.708000000
H    -0.475000000     6.080000000     2.994000000
H    -0.703000000     5.710000000     4.443000000
O    -2.990000000     4.049000000     3.619000000
H    -3.571000000     4.300000000     2.901000000
H    -2.600000000     4.873000000     3.910000000
O     1.671000000     2.696000000     8.381000000
H     1.791000000     3.547000000     7.960000000
H     0.819000000     2.759000000     8.812000000
O     4.796000000     6.508000000     6.323000000
H     4.121000000     5.842000000     6.191000000
H     4.310000000     7.329000000     6.402000000
O    -4.411000000     4.966000000     1.524000000
H    -4.525000000     4.260000000     0.888000000
H    -5.302000000     5.205000000     1.779000000
O    -0.170000000     8.873000000    -0.930000000
H    -1.071000000     8.774000000    -0.623000000
H     0.309000000     8.166000000    -0.498000000
O    -2.232000000     5.452000000     0.349000000
H    -1.494000000     5.203000000     0.905000000
H    -3.007000000     5.233000000     0.867000000
O     0.880000000     8.451000000     5.173000000
H     1.037000000     7.612000000     4.740000000
H     0.150000000     8.280000000     5.769000000
O    -2.479000000     8.644000000     3.370000000
H    -2.127000000     7.754000000     3.395000000
H    -1.710000000     9.202000000     3.252000000
O    -2.876000000     8.295000000    -0.317000000
H    -2.866000000     7.541000000     0.272000000
H    -3.513000000     8.064000000    -0.993000000
O     1.244000000     6.980000000     0.613000000
H     0.779000000     6.295000000     1.094000000
H     1.906000000     6.511000000     0.107000000
O     1.835000000     6.441000000     3.419000000
H     1.661000000     5.500000000     3.383000000
H     2.013000000     6.687000000     2.511000000
O     1.961000000     5.819000000     7.172000000
H     1.954000000     5.174000000     6.465000000
H     1.039000000     6.045000000     7.298000000
O     0.032000000     9.951000000     2.868000000
H     0.678000000     9.896000000     2.164000000
H     0.471000000     9.568000000     3.627000000
O    -0.540000000     3.971000000     7.812000000
H    -1.408000000     4.359000000     7.928000000
H    -0.538000000     3.655000000     6.909000000
