215
-1477.93913
C     3.843000000     2.538000000     1.952000000
H     4.021000000     3.017000000     0.993000000
C     3.885000000     1.152000000     2.011000000
C     3.955000000     0.500000000     3.271000000
H     4.164000000    -0.562000000     3.370000000
C     4.041000000     0.277000000     0.706000000
O     4.745000000     1.028000000    -0.310000000
H     3.077000000    -0.014000000     0.264000000
O     4.744000000    -0.965000000     1.031000000
C     4.130000000    -2.111000000     0.522000000
C     3.253000000    -2.767000000     1.391000000
H     3.290000000    -2.540000000     2.453000000
C     2.469000000    -3.825000000     0.965000000
O     1.591000000    -4.502000000     1.751000000
C     2.524000000    -4.216000000    -0.424000000
C     1.612000000    -5.255000000    -1.074000000
H     2.106000000    -5.577000000    -1.993000000
C     0.239000000    -4.695000000    -1.379000000
C    -0.009000000    -4.225000000    -2.658000000
H     0.747000000    -4.330000000    -3.432000000
H     1.513000000    -6.084000000    -0.369000000
C     3.391000000    -3.519000000    -1.287000000
H     3.361000000    -3.780000000    -2.342000000
C     4.188000000    -2.454000000    -0.816000000
C     5.030000000    -1.562000000    -1.833000000
H     5.191000000    -2.218000000    -2.690000000
H     6.042000000    -1.334000000    -1.489000000
C     4.265000000    -0.368000000    -2.352000000
C     3.570000000    -0.475000000    -3.578000000
H     3.505000000    -1.507000000    -3.914000000
C     4.296000000     0.889000000    -1.633000000
C     3.570000000     1.889000000    -2.178000000
H     3.526000000     2.856000000    -1.683000000
C     2.764000000     1.752000000    -3.334000000
O     1.975000000     2.860000000    -3.646000000
C     0.562000000     2.705000000    -3.381000000
C     0.002000000     3.953000000    -2.744000000
C    -1.276000000     4.384000000    -2.987000000
H    -1.813000000     3.896000000    -3.797000000
C     0.769000000     4.632000000    -1.769000000
H     1.779000000     4.308000000    -1.536000000
O    -0.152000000     2.295000000    -4.575000000
H     0.519000000     1.807000000    -2.746000000
C     2.751000000     0.560000000    -3.988000000
C     1.877000000     0.358000000    -5.254000000
H     2.237000000    -0.599000000    -5.636000000
H     1.979000000     1.100000000    -6.049000000
C     0.437000000    -0.051000000    -4.965000000
C     0.041000000    -1.398000000    -4.915000000
H     0.828000000    -2.142000000    -5.002000000
C    -0.508000000     0.943000000    -4.759000000
C    -1.837000000     0.641000000    -4.433000000
H    -2.539000000     1.434000000    -4.188000000
C    -2.128000000    -0.725000000    -4.264000000
O    -3.328000000    -1.092000000    -3.745000000
C    -3.347000000    -1.433000000    -2.349000000
C    -4.428000000    -0.748000000    -1.588000000
C    -4.861000000     0.536000000    -1.942000000
H    -4.320000000     1.035000000    -2.742000000
C    -5.021000000    -1.335000000    -0.461000000
H    -4.697000000    -2.309000000    -0.102000000
O    -3.428000000    -2.852000000    -2.266000000
H    -2.381000000    -1.211000000    -1.872000000
C    -1.226000000    -1.709000000    -4.621000000
C    -1.480000000    -3.186000000    -4.473000000
H    -0.870000000    -3.767000000    -5.168000000
H    -2.555000000    -3.239000000    -4.657000000
C    -1.249000000    -3.688000000    -3.000000000
C    -2.228000000    -3.478000000    -1.965000000
C    -1.958000000    -3.878000000    -0.655000000
H    -2.718000000    -3.747000000     0.111000000
C    -0.735000000    -4.481000000    -0.352000000
O    -0.521000000    -4.866000000     0.939000000
C     0.274000000    -3.979000000     1.748000000
H     0.238000000    -2.964000000     1.326000000
C    -0.236000000    -3.885000000     3.195000000
C     0.639000000    -3.770000000     4.259000000
H     1.654000000    -4.139000000     4.139000000
C    -1.532000000    -3.337000000     3.328000000
H    -2.273000000    -3.399000000     2.535000000
C    -1.979000000    -2.741000000     4.512000000
O    -3.315000000    -2.240000000     4.674000000
C    -1.088000000    -2.726000000     5.574000000
H    -1.418000000    -2.243000000     6.490000000
C     0.205000000    -3.209000000     5.473000000
O     1.014000000    -3.052000000     6.524000000
C     2.273000000    -2.479000000     6.383000000
C     2.498000000    -1.189000000     5.900000000
H     1.699000000    -0.666000000     5.382000000
C     3.304000000    -3.084000000     7.098000000
H     3.181000000    -4.088000000     7.496000000
C     4.544000000    -2.550000000     7.221000000
H     5.446000000    -2.999000000     7.628000000
C     4.741000000    -1.303000000     6.628000000
H     5.691000000    -0.777000000     6.679000000
C     3.712000000    -0.601000000     6.059000000
O     3.858000000     0.763000000     5.726000000
C     3.869000000     1.291000000     4.441000000
C     3.816000000     2.668000000     4.317000000
H     3.928000000     3.276000000     5.211000000
C     3.697000000     3.338000000     3.042000000
O     3.731000000     4.705000000     2.938000000
C     3.609000000     5.312000000     1.732000000
C     2.315000000     5.654000000     1.240000000
H     1.401000000     5.297000000     1.708000000
C     4.793000000     5.708000000     1.004000000
H     5.773000000     5.480000000     1.416000000
C     4.591000000     6.479000000    -0.158000000
H     5.483000000     6.739000000    -0.723000000
C     3.348000000     6.841000000    -0.634000000
H     3.248000000     7.385000000    -1.570000000
C     2.210000000     6.337000000     0.033000000
O     0.914000000     6.616000000    -0.372000000
C     0.256000000     5.839000000    -1.228000000
C    -1.062000000     6.266000000    -1.453000000
H    -1.434000000     7.184000000    -1.004000000
C    -1.794000000     5.516000000    -2.378000000
O    -3.051000000     5.983000000    -2.586000000
C    -4.175000000     5.171000000    -2.903000000
C    -4.551000000     4.156000000    -2.066000000
H    -3.970000000     3.977000000    -1.164000000
C    -4.942000000     5.446000000    -4.035000000
H    -4.732000000     6.230000000    -4.758000000
C    -6.206000000     4.804000000    -4.219000000
H    -6.854000000     5.153000000    -5.018000000
C    -6.537000000     3.723000000    -3.392000000
H    -7.514000000     3.247000000    -3.411000000
C    -5.747000000     3.422000000    -2.306000000
O    -6.210000000     2.502000000    -1.341000000
C    -5.811000000     1.168000000    -1.097000000
C    -6.442000000     0.496000000    -0.014000000
H    -7.276000000     1.008000000     0.457000000
C    -6.031000000    -0.794000000     0.328000000
O    -6.644000000    -1.529000000     1.339000000
C    -6.026000000    -2.395000000     2.219000000
C    -6.649000000    -3.588000000     2.721000000
H    -7.555000000    -3.963000000     2.252000000
C    -6.067000000    -4.410000000     3.730000000
H    -6.537000000    -5.325000000     4.085000000
C    -4.862000000    -3.996000000     4.352000000
H    -4.540000000    -4.576000000     5.214000000
C    -4.382000000    -2.716000000     4.014000000
C    -4.875000000    -2.003000000     2.955000000
H    -4.418000000    -1.050000000     2.700000000
C    -2.134000000     1.387000000     0.443000000
H    -2.951000000     2.080000000     0.261000000
C    -1.216000000     1.041000000    -0.624000000
H    -1.414000000     1.359000000    -1.644000000
C    -0.127000000     0.212000000    -0.394000000
H     0.465000000    -0.294000000    -1.230000000
C     0.118000000    -0.183000000     0.933000000
H     0.953000000    -0.837000000     1.174000000
C    -0.790000000     0.206000000     1.926000000
H    -0.618000000    -0.054000000     2.967000000
C    -1.969000000     0.887000000     1.725000000
C    -3.004000000     1.117000000     2.783000000
O    -2.863000000     0.724000000     3.948000000
O    -3.997000000     1.822000000     2.576000000
O    -0.695000000     3.644000000     5.679000000
H    -0.820000000     2.697000000     5.616000000
H    -0.156000000     3.763000000     6.461000000
O    -6.399000000     3.538000000     1.284000000
H    -6.331000000     3.477000000     0.331000000
H    -5.983000000     2.738000000     1.606000000
O    -1.169000000     0.930000000     5.998000000
H    -1.720000000     0.695000000     5.251000000
H    -1.531000000     0.429000000     6.729000000
O    -5.160000000    -0.029000000     8.655000000
H    -6.106000000    -0.155000000     8.735000000
H    -5.053000000     0.470000000     7.845000000
O    -3.108000000     3.401000000     8.091000000
H    -3.017000000     3.328000000     7.141000000
H    -2.275000000     3.079000000     8.437000000
O    -3.357000000     3.061000000     5.249000000
H    -3.421000000     2.285000000     4.692000000
H    -2.460000000     3.370000000     5.127000000
O    -5.101000000     0.694000000     5.854000000
H    -5.129000000    -0.262000000     5.888000000
H    -4.241000000     0.895000000     5.485000000
O    -2.382000000    -0.313000000     8.280000000
H    -3.337000000    -0.373000000     8.292000000
H    -2.140000000    -0.168000000     9.195000000
O    -6.373000000    -1.704000000     6.079000000
H    -6.935000000    -1.528000000     5.325000000
H    -6.905000000    -1.461000000     6.836000000
O    -6.448000000     1.369000000     3.383000000
H    -6.310000000     1.029000000     4.266000000
H    -5.573000000     1.393000000     2.995000000
O    -3.896000000     4.414000000     2.061000000
H    -3.777000000     3.480000000     2.231000000
H    -4.834000000     4.562000000     2.182000000
O    -2.300000000     6.521000000     3.762000000
H    -2.392000000     5.965000000     2.989000000
H    -2.372000000     7.414000000     3.425000000
O    -3.664000000    -5.721000000     1.681000000
H    -3.469000000    -4.907000000     2.146000000
H    -2.806000000    -6.112000000     1.514000000
O     0.633000000     5.589000000     4.018000000
H    -0.192000000     6.027000000     3.810000000
H     0.393000000     4.917000000     4.656000000
O    -3.982000000     7.000000000     0.566000000
H    -4.157000000     6.335000000     1.233000000
H    -3.332000000     6.596000000    -0.009000000
O    -8.321000000     5.086000000     2.712000000
H    -7.740000000     4.445000000     2.302000000
H    -8.404000000     5.784000000     2.061000000
O    -8.981000000     0.514000000     2.775000000
H    -8.051000000     0.661000000     2.952000000
H    -8.998000000     0.100000000     1.912000000
O    -5.007000000     6.323000000     4.500000000
H    -4.067000000     6.148000000     4.544000000
H    -5.412000000     5.456000000     4.519000000
O    -6.077000000     3.684000000     5.235000000
H    -6.178000000     3.144000000     4.452000000
H    -5.225000000     3.432000000     5.592000000
