215
-1463.99883
C     4.421000000     2.127000000     2.284000000
H     4.783000000     2.429000000     1.304000000
C     4.135000000     0.795000000     2.550000000
C     3.912000000     0.362000000     3.876000000
H     3.734000000    -0.706000000     3.972000000
C     4.114000000    -0.285000000     1.421000000
O     5.058000000     0.112000000     0.404000000
H     3.106000000    -0.244000000     0.984000000
O     4.362000000    -1.626000000     1.870000000
C     3.485000000    -2.644000000     1.482000000
C     2.559000000    -3.208000000     2.413000000
H     2.569000000    -2.748000000     3.398000000
C     1.516000000    -3.981000000     1.893000000
O     0.346000000    -4.192000000     2.611000000
C     1.631000000    -4.484000000     0.578000000
C     0.629000000    -5.398000000    -0.069000000
H     1.161000000    -6.127000000    -0.685000000
C    -0.460000000    -4.756000000    -0.761000000
C    -0.395000000    -4.491000000    -2.178000000
H     0.546000000    -4.651000000    -2.698000000
H     0.294000000    -6.044000000     0.745000000
C     2.662000000    -4.077000000    -0.266000000
H     2.676000000    -4.466000000    -1.281000000
C     3.555000000    -3.063000000     0.135000000
C     4.761000000    -2.697000000    -0.760000000
H     5.023000000    -3.495000000    -1.457000000
H     5.619000000    -2.432000000    -0.138000000
C     4.357000000    -1.397000000    -1.473000000
C     3.745000000    -1.464000000    -2.725000000
H     3.645000000    -2.462000000    -3.145000000
C     4.636000000    -0.157000000    -0.923000000
C     4.219000000     0.982000000    -1.568000000
H     4.281000000     1.944000000    -1.064000000
C     3.564000000     0.909000000    -2.839000000
O     3.043000000     2.062000000    -3.315000000
C     1.557000000     2.130000000    -3.177000000
C     1.072000000     3.433000000    -2.723000000
C    -0.111000000     3.995000000    -3.123000000
H    -0.731000000     3.432000000    -3.815000000
C     1.890000000     4.138000000    -1.843000000
H     2.763000000     3.664000000    -1.401000000
O     0.951000000     1.777000000    -4.448000000
H     1.240000000     1.445000000    -2.377000000
C     3.339000000    -0.305000000    -3.381000000
C     2.778000000    -0.448000000    -4.736000000
H     3.146000000    -1.322000000    -5.276000000
H     2.992000000     0.370000000    -5.427000000
C     1.303000000    -0.631000000    -4.687000000
C     0.717000000    -1.900000000    -4.658000000
H     1.330000000    -2.793000000    -4.758000000
C     0.480000000     0.494000000    -4.576000000
C    -0.881000000     0.369000000    -4.333000000
H    -1.473000000     1.257000000    -4.128000000
C    -1.426000000    -0.893000000    -4.298000000
O    -2.773000000    -0.997000000    -4.024000000
C    -3.257000000    -1.246000000    -2.679000000
C    -4.352000000    -0.285000000    -2.218000000
C    -4.608000000     0.876000000    -2.953000000
H    -4.084000000     1.162000000    -3.861000000
C    -4.971000000    -0.510000000    -0.979000000
H    -4.680000000    -1.377000000    -0.391000000
O    -3.550000000    -2.669000000    -2.544000000
H    -2.408000000    -1.146000000    -1.986000000
C    -0.649000000    -2.045000000    -4.476000000
C    -1.283000000    -3.421000000    -4.240000000
H    -0.719000000    -4.214000000    -4.735000000
H    -2.240000000    -3.447000000    -4.766000000
C    -1.425000000    -3.768000000    -2.727000000
C    -2.565000000    -3.457000000    -1.958000000
C    -2.668000000    -3.853000000    -0.637000000
H    -3.513000000    -3.456000000    -0.080000000
C    -1.617000000    -4.458000000    -0.058000000
O    -1.671000000    -4.543000000     1.298000000
C    -0.894000000    -3.585000000     2.055000000
H    -0.680000000    -2.743000000     1.379000000
C    -1.635000000    -2.935000000     3.231000000
C    -0.863000000    -2.179000000     4.154000000
H     0.181000000    -1.999000000     3.914000000
C    -2.959000000    -3.064000000     3.442000000
H    -3.456000000    -3.476000000     2.567000000
C    -3.598000000    -2.543000000     4.524000000
O    -5.028000000    -2.548000000     4.507000000
C    -2.836000000    -1.945000000     5.551000000
H    -3.274000000    -1.638000000     6.498000000
C    -1.433000000    -1.750000000     5.387000000
O    -0.715000000    -1.201000000     6.437000000
C     0.664000000    -1.231000000     6.471000000
C     1.438000000    -0.096000000     6.425000000
H     0.981000000     0.888000000     6.359000000
C     1.304000000    -2.494000000     6.360000000
H     0.733000000    -3.419000000     6.382000000
C     2.711000000    -2.568000000     6.453000000
H     3.172000000    -3.552000000     6.496000000
C     3.466000000    -1.411000000     6.484000000
H     4.553000000    -1.392000000     6.463000000
C     2.815000000    -0.171000000     6.413000000
O     3.558000000     0.918000000     6.201000000
C     3.850000000     1.304000000     4.918000000
C     4.146000000     2.652000000     4.661000000
H     4.176000000     3.377000000     5.470000000
C     4.433000000     3.066000000     3.382000000
O     4.688000000     4.414000000     3.225000000
C     4.626000000     5.007000000     2.022000000
C     3.400000000     5.169000000     1.485000000
H     2.462000000     4.875000000     1.949000000
C     5.817000000     5.402000000     1.382000000
H     6.787000000     5.307000000     1.863000000
C     5.633000000     6.157000000     0.184000000
H     6.503000000     6.498000000    -0.372000000
C     4.397000000     6.240000000    -0.387000000
H     4.344000000     6.705000000    -1.368000000
C     3.215000000     5.831000000     0.274000000
O     2.004000000     6.079000000    -0.322000000
C     1.363000000     5.334000000    -1.272000000
C     0.162000000     5.890000000    -1.711000000
H    -0.218000000     6.743000000    -1.155000000
C    -0.600000000     5.271000000    -2.660000000
O    -1.846000000     5.814000000    -2.872000000
C    -2.839000000     5.166000000    -3.604000000
C    -3.681000000     4.231000000    -2.959000000
H    -3.483000000     3.851000000    -1.960000000
C    -3.132000000     5.546000000    -4.966000000
H    -2.553000000     6.304000000    -5.488000000
C    -4.325000000     5.029000000    -5.538000000
H    -4.634000000     5.217000000    -6.563000000
C    -5.205000000     4.148000000    -4.882000000
H    -6.093000000     3.802000000    -5.406000000
C    -4.884000000     3.714000000    -3.606000000
O    -5.764000000     2.986000000    -2.868000000
C    -5.450000000     1.865000000    -2.313000000
C    -6.039000000     1.566000000    -1.092000000
H    -6.667000000     2.324000000    -0.630000000
C    -5.797000000     0.383000000    -0.404000000
O    -6.230000000     0.257000000     0.860000000
C    -6.420000000    -0.908000000     1.545000000
C    -7.182000000    -2.012000000     0.983000000
H    -7.615000000    -1.938000000    -0.011000000
C    -7.275000000    -3.155000000     1.761000000
H    -7.744000000    -3.973000000     1.220000000
C    -6.595000000    -3.269000000     2.963000000
H    -6.635000000    -4.164000000     3.580000000
C    -5.824000000    -2.278000000     3.426000000
C    -5.696000000    -1.112000000     2.724000000
H    -4.940000000    -0.397000000     3.038000000
C    -0.687000000     2.112000000    -0.148000000
H    -1.273000000     3.001000000    -0.367000000
C    -0.805000000     1.062000000    -1.014000000
H    -1.497000000     1.185000000    -1.843000000
C    -0.242000000    -0.212000000    -0.781000000
H    -0.365000000    -0.976000000    -1.512000000
C     0.460000000    -0.454000000     0.401000000
H     0.910000000    -1.430000000     0.562000000
C     0.592000000     0.656000000     1.267000000
H     1.229000000     0.491000000     2.132000000
C    -0.071000000     1.887000000     1.038000000
C     0.120000000     2.988000000     2.069000000
O     0.565000000     2.787000000     3.156000000
O    -0.465000000     4.012000000     1.884000000
O     1.428000000     3.010000000     8.340000000
H     0.538000000     2.872000000     8.664000000
H     1.310000000     3.359000000     7.456000000
O     1.235000000     3.736000000     5.410000000
H     1.953000000     4.329000000     5.190000000
H     1.016000000     3.307000000     4.583000000
O    -0.066000000     7.800000000     4.064000000
H    -0.371000000     7.335000000     3.285000000
H    -0.713000000     7.591000000     4.737000000
O    -5.403000000     2.963000000     4.684000000
H    -6.218000000     3.325000000     4.337000000
H    -4.744000000     3.632000000     4.493000000
O    -1.350000000     1.323000000     4.318000000
H    -0.702000000     1.890000000     3.899000000
H    -0.831000000     0.662000000     4.775000000
O     3.503000000     8.010000000     3.355000000
H     2.574000000     8.138000000     3.161000000
H     3.954000000     8.295000000     2.561000000
O    -1.320000000     2.300000000     8.420000000
H    -1.768000000     2.699000000     7.674000000
H    -1.961000000     2.332000000     9.130000000
O    -1.496000000     5.187000000     4.030000000
H    -1.197000000     4.654000000     3.293000000
H    -1.272000000     4.671000000     4.805000000
O    -3.899000000     0.739000000     5.050000000
H    -4.379000000     1.559000000     4.927000000
H    -3.020000000     0.925000000     4.720000000
O    -3.629000000     1.620000000     1.488000000
H    -4.433000000     1.154000000     1.715000000
H    -2.951000000     1.200000000     2.018000000
O    -0.743000000     9.036000000     0.287000000
H    -1.678000000     8.836000000     0.317000000
H    -0.331000000     8.329000000     0.782000000
O    -2.940000000     4.127000000     0.684000000
H    -2.074000000     4.099000000     1.092000000
H    -3.332000000     3.280000000     0.896000000
O    -0.073000000     5.573000000     7.219000000
H     0.338000000     5.188000000     6.445000000
H    -1.002000000     5.361000000     7.127000000
O    -4.102000000     5.052000000     3.228000000
H    -3.814000000     4.675000000     2.397000000
H    -3.296000000     5.350000000     3.649000000
O    -3.434000000     7.178000000    -0.461000000
H    -3.280000000     6.233000000    -0.446000000
H    -3.085000000     7.464000000    -1.305000000
O    -0.007000000     6.525000000     1.640000000
H    -0.141000000     5.614000000     1.902000000
H     0.854000000     6.530000000     1.223000000
O     2.310000000     6.159000000     4.716000000
H     2.825000000     6.794000000     4.218000000
H     1.425000000     6.526000000     4.728000000
O    -6.012000000     5.127000000     0.621000000
H    -6.482000000     5.675000000    -0.008000000
H    -5.088000000     5.323000000     0.465000000
O    -3.004000000     4.092000000     6.832000000
H    -3.494000000     4.792000000     7.264000000
H    -3.649000000     3.397000000     6.697000000
