215
-1442.53564
C     5.110000000     1.893000000     1.575000000
H     5.629000000     1.873000000     0.621000000
C     4.466000000     0.700000000     1.994000000
C     3.845000000     0.680000000     3.273000000
H     3.281000000    -0.195000000     3.585000000
C     4.462000000    -0.632000000     1.158000000
O     5.216000000    -0.480000000    -0.008000000
H     3.398000000    -0.715000000     0.892000000
O     4.736000000    -1.862000000     1.820000000
C     3.811000000    -2.864000000     1.580000000
C     2.768000000    -3.071000000     2.514000000
H     2.756000000    -2.523000000     3.453000000
C     1.657000000    -3.880000000     2.248000000
O     0.543000000    -3.849000000     3.067000000
C     1.628000000    -4.593000000     0.986000000
C     0.510000000    -5.498000000     0.494000000
H     0.859000000    -6.220000000    -0.247000000
C    -0.591000000    -4.754000000    -0.179000000
C    -0.504000000    -4.659000000    -1.594000000
H     0.314000000    -5.042000000    -2.198000000
H     0.140000000    -6.086000000     1.336000000
C     2.661000000    -4.349000000     0.060000000
H     2.674000000    -4.988000000    -0.819000000
C     3.691000000    -3.445000000     0.322000000
C     4.684000000    -3.221000000    -0.880000000
H     4.742000000    -4.189000000    -1.383000000
H     5.617000000    -3.087000000    -0.328000000
C     4.336000000    -2.014000000    -1.680000000
C     3.669000000    -2.046000000    -2.940000000
H     3.608000000    -3.069000000    -3.303000000
C     4.605000000    -0.663000000    -1.235000000
C     4.298000000     0.489000000    -1.967000000
H     4.551000000     1.497000000    -1.649000000
C     3.396000000     0.347000000    -3.050000000
O     2.810000000     1.501000000    -3.566000000
C     1.404000000     1.607000000    -3.399000000
C     0.886000000     2.984000000    -3.025000000
C    -0.329000000     3.502000000    -3.480000000
H    -0.854000000     3.075000000    -4.330000000
C     1.632000000     3.676000000    -2.074000000
H     2.540000000     3.232000000    -1.674000000
O     0.736000000     1.181000000    -4.592000000
H     1.068000000     0.928000000    -2.601000000
C     3.161000000    -0.899000000    -3.609000000
C     2.445000000    -1.101000000    -4.947000000
H     2.839000000    -2.022000000    -5.380000000
H     2.656000000    -0.267000000    -5.620000000
C     0.987000000    -1.225000000    -4.586000000
C     0.352000000    -2.471000000    -4.312000000
H     0.905000000    -3.388000000    -4.499000000
C     0.200000000    -0.049000000    -4.487000000
C    -1.165000000    -0.136000000    -4.145000000
H    -1.869000000     0.692000000    -4.131000000
C    -1.712000000    -1.374000000    -3.966000000
O    -3.028000000    -1.380000000    -3.750000000
C    -3.488000000    -1.496000000    -2.363000000
C    -4.600000000    -0.503000000    -2.014000000
C    -4.873000000     0.693000000    -2.746000000
H    -4.316000000     0.965000000    -3.639000000
C    -5.316000000    -0.605000000    -0.831000000
H    -5.165000000    -1.494000000    -0.223000000
O    -3.748000000    -2.847000000    -1.992000000
H    -2.673000000    -1.075000000    -1.756000000
C    -1.003000000    -2.571000000    -4.052000000
C    -1.589000000    -3.904000000    -3.680000000
H    -0.945000000    -4.592000000    -4.233000000
H    -2.547000000    -4.058000000    -4.181000000
C    -1.629000000    -4.066000000    -2.181000000
C    -2.716000000    -3.578000000    -1.426000000
C    -2.686000000    -3.609000000    -0.004000000
H    -3.328000000    -2.960000000     0.586000000
C    -1.633000000    -4.207000000     0.573000000
O    -1.597000000    -4.013000000     1.967000000
C    -0.614000000    -3.103000000     2.565000000
H    -0.270000000    -2.289000000     1.910000000
C    -1.326000000    -2.388000000     3.756000000
C    -0.601000000    -2.005000000     4.907000000
H     0.386000000    -2.380000000     5.167000000
C    -2.697000000    -1.957000000     3.631000000
H    -3.310000000    -2.239000000     2.778000000
C    -3.281000000    -1.138000000     4.598000000
O    -4.527000000    -0.587000000     4.387000000
C    -2.486000000    -0.753000000     5.733000000
H    -2.935000000     0.044000000     6.321000000
C    -1.161000000    -1.094000000     5.867000000
O    -0.438000000    -0.529000000     6.927000000
C     0.937000000    -0.311000000     6.897000000
C     1.361000000     0.644000000     5.978000000
H     0.627000000     1.127000000     5.338000000
C     1.805000000    -1.101000000     7.644000000
H     1.521000000    -1.823000000     8.405000000
C     3.188000000    -0.985000000     7.405000000
H     3.878000000    -1.671000000     7.891000000
C     3.677000000     0.019000000     6.565000000
H     4.752000000     0.120000000     6.442000000
C     2.742000000     0.909000000     5.945000000
O     3.165000000     1.936000000     5.212000000
C     3.897000000     1.806000000     4.030000000
C     4.576000000     2.983000000     3.601000000
H     4.551000000     3.853000000     4.251000000
C     5.238000000     3.006000000     2.437000000
O     5.771000000     4.200000000     1.964000000
C     5.233000000     4.859000000     0.888000000
C     3.854000000     4.678000000     0.526000000
H     3.215000000     4.134000000     1.217000000
C     6.144000000     5.620000000     0.080000000
H     7.183000000     5.755000000     0.372000000
C     5.623000000     6.308000000    -0.950000000
H     6.303000000     6.990000000    -1.454000000
C     4.275000000     6.171000000    -1.292000000
H     3.851000000     6.901000000    -1.976000000
C     3.377000000     5.316000000    -0.536000000
O     2.059000000     5.545000000    -0.635000000
C     1.228000000     4.887000000    -1.571000000
C     0.058000000     5.434000000    -2.041000000
H    -0.190000000     6.455000000    -1.763000000
C    -0.733000000     4.792000000    -3.001000000
O    -1.843000000     5.381000000    -3.422000000
C    -2.907000000     4.713000000    -3.986000000
C    -3.778000000     4.094000000    -3.146000000
H    -3.453000000     3.980000000    -2.115000000
C    -3.251000000     4.931000000    -5.329000000
H    -2.597000000     5.539000000    -5.949000000
C    -4.472000000     4.374000000    -5.849000000
H    -4.653000000     4.408000000    -6.920000000
C    -5.326000000     3.747000000    -5.009000000
H    -6.225000000     3.384000000    -5.500000000
C    -4.976000000     3.574000000    -3.658000000
O    -5.927000000     2.841000000    -2.939000000
C    -5.789000000     1.653000000    -2.320000000
C    -6.568000000     1.403000000    -1.245000000
H    -7.320000000     2.117000000    -0.921000000
C    -6.354000000     0.275000000    -0.473000000
O    -7.163000000     0.007000000     0.630000000
C    -6.801000000    -0.855000000     1.692000000
C    -7.452000000    -2.107000000     1.937000000
H    -8.304000000    -2.332000000     1.301000000
C    -7.063000000    -2.843000000     3.047000000
H    -7.441000000    -3.833000000     3.291000000
C    -6.110000000    -2.350000000     3.950000000
H    -5.657000000    -2.887000000     4.779000000
C    -5.553000000    -1.129000000     3.681000000
C    -5.853000000    -0.423000000     2.543000000
H    -5.423000000     0.550000000     2.314000000
C    -2.013000000     2.445000000     0.095000000
H    -2.925000000     2.997000000    -0.115000000
C    -1.789000000     1.353000000    -0.752000000
H    -2.468000000     1.080000000    -1.555000000
C    -0.788000000     0.461000000    -0.545000000
H    -0.687000000    -0.442000000    -1.238000000
C     0.110000000     0.654000000     0.469000000
H     1.010000000     0.055000000     0.581000000
C    -0.030000000     1.796000000     1.319000000
H     0.638000000     1.967000000     2.159000000
C    -1.102000000     2.679000000     1.176000000
C    -1.331000000     3.803000000     2.113000000
O    -0.482000000     4.166000000     2.932000000
O    -2.438000000     4.355000000     2.027000000
O     2.978000000     4.470000000     6.587000000
H     2.255000000     4.706000000     6.005000000
H     3.341000000     3.671000000     6.204000000
O     0.894000000     5.208000000     4.995000000
H     0.322000000     5.971000000     4.920000000
H     0.648000000     4.650000000     4.257000000
O    -2.649000000     9.218000000     5.396000000
H    -2.556000000     8.349000000     5.005000000
H    -1.754000000     9.482000000     5.608000000
O    -5.715000000     5.917000000     4.727000000
H    -6.487000000     5.814000000     4.169000000
H    -6.056000000     6.287000000     5.541000000
O    -1.552000000     2.523000000     4.837000000
H    -2.361000000     2.519000000     4.325000000
H    -0.914000000     2.962000000     4.274000000
O    -3.148000000     6.752000000     3.386000000
H    -2.713000000     6.109000000     2.827000000
H    -3.923000000     6.298000000     3.715000000
O    -4.062000000     3.531000000     3.956000000
H    -4.887000000     3.759000000     3.528000000
H    -3.385000000     3.873000000     3.371000000
O    -3.585000000     5.627000000     6.949000000
H    -4.418000000     5.348000000     7.328000000
H    -3.782000000     5.784000000     6.025000000
O    -6.324000000     3.731000000     1.819000000
H    -6.897000000     2.984000000     1.991000000
H    -6.753000000     4.202000000     1.105000000
O    -0.369000000     8.719000000     0.629000000
H     0.001000000     7.865000000     0.855000000
H    -1.222000000     8.733000000     1.064000000
O    -3.962000000     5.329000000     0.139000000
H    -3.369000000     4.956000000     0.791000000
H    -4.822000000     4.979000000     0.370000000
O    -0.474000000     6.179000000     8.220000000
H     0.400000000     6.056000000     8.591000000
H    -0.558000000     5.481000000     7.570000000
O    -3.152000000     8.548000000     1.435000000
H    -4.029000000     8.283000000     1.158000000
H    -2.948000000     7.970000000     2.170000000
O    -4.052000000     7.562000000    -1.390000000
H    -4.074000000     6.795000000    -0.818000000
H    -3.206000000     7.972000000    -1.209000000
O     0.386000000     6.350000000     1.681000000
H    -0.123000000     5.564000000     1.879000000
H     1.227000000     6.018000000     1.367000000
O     0.421000000     8.248000000     3.887000000
H     0.586000000     7.531000000     3.275000000
H     0.555000000     9.041000000     3.367000000
O    -4.771000000     2.055000000     6.371000000
H    -5.260000000     1.363000000     5.925000000
H    -4.297000000     2.503000000     5.671000000
O     1.142000000     2.855000000     8.126000000
H     1.923000000     3.145000000     7.656000000
H     0.411000000     3.178000000     7.598000000
O    -1.578000000     3.816000000     7.330000000
H    -2.248000000     4.496000000     7.256000000
H    -1.537000000     3.424000000     6.458000000
