215
-1449.15960
C     3.900000000     1.574000000     1.707000000
H     3.980000000     1.666000000     0.627000000
C     3.815000000     0.261000000     2.269000000
C     3.526000000     0.159000000     3.618000000
H     3.333000000    -0.795000000     4.102000000
C     3.849000000    -0.849000000     1.246000000
O     4.765000000    -0.643000000     0.174000000
H     2.792000000    -0.844000000     0.940000000
O     4.062000000    -2.059000000     1.958000000
C     3.147000000    -3.001000000     1.711000000
C     2.054000000    -3.176000000     2.475000000
H     2.073000000    -2.620000000     3.409000000
C     0.972000000    -3.939000000     1.998000000
O    -0.099000000    -3.849000000     2.816000000
C     0.986000000    -4.602000000     0.788000000
C    -0.132000000    -5.490000000     0.349000000
H     0.215000000    -6.201000000    -0.405000000
C    -1.251000000    -4.740000000    -0.320000000
C    -1.213000000    -4.565000000    -1.689000000
H    -0.330000000    -5.012000000    -2.139000000
H    -0.457000000    -6.099000000     1.195000000
C     2.182000000    -4.437000000     0.011000000
H     2.219000000    -5.014000000    -0.909000000
C     3.230000000    -3.690000000     0.479000000
C     4.380000000    -3.435000000    -0.455000000
H     4.533000000    -4.277000000    -1.133000000
H     5.407000000    -3.239000000    -0.140000000
C     4.057000000    -2.254000000    -1.425000000
C     3.556000000    -2.529000000    -2.713000000
H     3.223000000    -3.535000000    -2.956000000
C     4.271000000    -0.936000000    -1.063000000
C     4.086000000     0.159000000    -1.894000000
H     4.320000000     1.149000000    -1.511000000
C     3.618000000    -0.110000000    -3.182000000
O     3.337000000     0.977000000    -4.008000000
C     1.994000000     1.527000000    -3.923000000
C     2.006000000     3.029000000    -3.906000000
C     0.781000000     3.699000000    -4.139000000
H     0.008000000     3.107000000    -4.622000000
C     3.047000000     3.724000000    -3.340000000
H     3.978000000     3.207000000    -3.122000000
O     1.232000000     0.920000000    -5.007000000
H     1.540000000     1.223000000    -2.968000000
C     3.243000000    -1.408000000    -3.524000000
C     2.556000000    -1.660000000    -4.890000000
H     2.780000000    -2.690000000    -5.175000000
H     2.898000000    -0.984000000    -5.677000000
C     1.087000000    -1.492000000    -4.755000000
C     0.260000000    -2.590000000    -4.593000000
H     0.664000000    -3.598000000    -4.629000000
C     0.524000000    -0.209000000    -4.762000000
C    -0.792000000    -0.025000000    -4.508000000
H    -1.256000000     0.958000000    -4.519000000
C    -1.605000000    -1.096000000    -4.152000000
O    -2.904000000    -0.765000000    -3.822000000
C    -3.340000000    -0.998000000    -2.451000000
C    -4.250000000     0.137000000    -1.900000000
C    -3.731000000     1.470000000    -1.930000000
H    -2.792000000     1.644000000    -2.449000000
C    -5.512000000    -0.118000000    -1.213000000
H    -5.959000000    -1.108000000    -1.197000000
O    -3.957000000    -2.324000000    -2.353000000
H    -2.415000000    -0.971000000    -1.856000000
C    -1.084000000    -2.399000000    -4.195000000
C    -1.995000000    -3.597000000    -3.866000000
H    -1.614000000    -4.485000000    -4.375000000
H    -3.007000000    -3.422000000    -4.238000000
C    -2.179000000    -3.805000000    -2.342000000
C    -3.192000000    -3.192000000    -1.631000000
C    -3.275000000    -3.268000000    -0.247000000
H    -4.016000000    -2.663000000     0.270000000
C    -2.258000000    -4.061000000     0.383000000
O    -2.258000000    -3.917000000     1.724000000
C    -1.272000000    -3.073000000     2.365000000
H    -0.961000000    -2.424000000     1.534000000
C    -1.802000000    -2.160000000     3.469000000
C    -0.970000000    -1.838000000     4.521000000
H     0.004000000    -2.301000000     4.654000000
C    -3.060000000    -1.590000000     3.428000000
H    -3.641000000    -1.777000000     2.528000000
C    -3.537000000    -0.829000000     4.468000000
O    -4.761000000    -0.225000000     4.390000000
C    -2.730000000    -0.575000000     5.563000000
H    -3.116000000    -0.017000000     6.412000000
C    -1.472000000    -1.139000000     5.579000000
O    -0.896000000    -1.116000000     6.761000000
C     0.510000000    -0.952000000     6.944000000
C     1.171000000    -0.135000000     6.140000000
H     0.701000000     0.425000000     5.336000000
C     1.171000000    -1.646000000     7.955000000
H     0.599000000    -2.293000000     8.615000000
C     2.583000000    -1.537000000     8.103000000
H     3.181000000    -2.045000000     8.855000000
C     3.279000000    -0.584000000     7.429000000
H     4.321000000    -0.360000000     7.642000000
C     2.520000000     0.129000000     6.411000000
O     3.229000000     1.201000000     5.798000000
C     3.375000000     1.308000000     4.385000000
C     3.534000000     2.610000000     3.837000000
H     3.421000000     3.541000000     4.387000000
C     3.755000000     2.705000000     2.509000000
O     3.887000000     4.009000000     2.010000000
C     4.598000000     4.272000000     0.836000000
C     3.931000000     4.805000000    -0.253000000
H     2.867000000     5.016000000    -0.180000000
C     5.961000000     3.972000000     0.737000000
H     6.416000000     3.633000000     1.665000000
C     6.684000000     4.260000000    -0.361000000
H     7.738000000     3.999000000    -0.390000000
C     6.072000000     4.874000000    -1.410000000
H     6.666000000     5.123000000    -2.286000000
C     4.675000000     5.137000000    -1.432000000
O     4.033000000     5.733000000    -2.541000000
C     2.936000000     5.078000000    -3.141000000
C     1.737000000     5.751000000    -3.391000000
H     1.648000000     6.815000000    -3.187000000
C     0.643000000     5.040000000    -3.944000000
O    -0.535000000     5.756000000    -4.293000000
C    -1.860000000     5.253000000    -4.037000000
C    -2.135000000     4.678000000    -2.761000000
H    -1.399000000     4.627000000    -1.963000000
C    -2.831000000     5.344000000    -5.044000000
H    -2.564000000     5.620000000    -6.061000000
C    -4.101000000     4.862000000    -4.729000000
H    -4.916000000     4.810000000    -5.447000000
C    -4.401000000     4.411000000    -3.526000000
H    -5.428000000     4.208000000    -3.231000000
C    -3.458000000     4.255000000    -2.519000000
O    -3.862000000     3.793000000    -1.298000000
C    -4.368000000     2.466000000    -1.182000000
C    -5.601000000     2.175000000    -0.594000000
H    -6.030000000     3.012000000    -0.050000000
C    -6.085000000     0.894000000    -0.493000000
O    -7.079000000     0.632000000     0.441000000
C    -7.092000000     0.027000000     1.650000000
C    -7.905000000    -1.071000000     1.871000000
H    -8.622000000    -1.309000000     1.089000000
C    -7.858000000    -1.797000000     3.034000000
H    -8.547000000    -2.610000000     3.249000000
C    -6.794000000    -1.544000000     3.905000000
H    -6.681000000    -2.048000000     4.862000000
C    -5.809000000    -0.534000000     3.547000000
C    -5.984000000     0.303000000     2.504000000
H    -5.292000000     1.118000000     2.308000000
C    -0.640000000     2.147000000     0.002000000
H    -0.914000000     3.166000000    -0.260000000
C    -0.261000000     1.393000000    -1.051000000
H    -0.341000000     1.707000000    -2.089000000
C     0.443000000     0.215000000    -0.798000000
H     0.923000000    -0.280000000    -1.600000000
C     0.401000000    -0.294000000     0.482000000
H     0.828000000    -1.277000000     0.663000000
C    -0.070000000     0.432000000     1.566000000
H    -0.074000000     0.112000000     2.604000000
C    -0.411000000     1.784000000     1.323000000
C    -0.869000000     2.672000000     2.402000000
O    -0.666000000     2.393000000     3.534000000
O    -1.424000000     3.704000000     2.089000000
O     0.364000000     4.553000000     4.974000000
H     0.665000000     4.346000000     5.859000000
H    -0.058000000     3.749000000     4.671000000
O    -3.509000000     8.941000000     0.854000000
H    -4.034000000     8.175000000     1.088000000
H    -2.603000000     8.635000000     0.908000000
O    -2.662000000     2.622000000     5.367000000
H    -3.066000000     1.803000000     5.656000000
H    -2.017000000     2.352000000     4.713000000
O     0.871000000     7.127000000     3.800000000
H     1.036000000     6.189000000     3.709000000
H    -0.036000000     7.183000000     4.102000000
O    -1.293000000     7.667000000     1.750000000
H    -0.609000000     7.020000000     1.576000000
H    -1.952000000     7.189000000     2.253000000
O    -1.043000000    10.093000000     2.606000000
H    -1.339000000     9.183000000     2.638000000
H    -0.834000000    10.244000000     1.684000000
O    -2.151000000     7.278000000     4.946000000
H    -2.759000000     7.692000000     5.558000000
H    -2.506000000     6.400000000     4.811000000
O     2.678000000     7.726000000     0.926000000
H     3.556000000     7.631000000     1.295000000
H     2.127000000     7.954000000     1.674000000
O     0.613000000     3.188000000     7.391000000
H     0.997000000     2.713000000     8.128000000
H    -0.250000000     3.460000000     7.705000000
O    -4.385000000     6.834000000     2.060000000
H    -5.319000000     6.881000000     2.263000000
H    -4.233000000     5.915000000     1.843000000
O     0.449000000     6.717000000    -0.587000000
H     0.419000000     5.990000000     0.035000000
H     1.189000000     7.251000000    -0.296000000
O    -1.570000000     8.238000000    -1.905000000
H    -2.334000000     7.853000000    -2.334000000
H    -1.259000000     7.553000000    -1.312000000
O     0.637000000     5.204000000     1.504000000
H     1.424000000     4.693000000     1.695000000
H    -0.072000000     4.719000000     1.926000000
O    -2.435000000     3.573000000     8.076000000
H    -3.352000000     3.687000000     8.324000000
H    -2.466000000     3.321000000     7.153000000
O    -6.035000000     3.902000000     3.408000000
H    -5.509000000     3.776000000     2.619000000
H    -6.793000000     4.407000000     3.113000000
O     3.544000000     3.695000000     6.928000000
H     2.599000000     3.765000000     7.067000000
H     3.643000000     2.961000000     6.323000000
O    -4.135000000     4.897000000     5.451000000
H    -4.829000000     4.640000000     4.844000000
H    -3.498000000     4.185000000     5.402000000
O    -6.402000000     2.034000000     5.466000000
H    -6.488000000     2.745000000     4.831000000
H    -5.690000000     1.493000000     5.124000000
O    -3.941000000     4.154000000     1.656000000
H    -3.832000000     3.875000000     0.746000000
H    -3.050000000     4.198000000     2.001000000
