215
-1454.05438
C     4.695000000     1.803000000     1.145000000
H     5.036000000     1.988000000     0.130000000
C     4.119000000     0.622000000     1.652000000
C     3.603000000     0.558000000     2.953000000
H     3.062000000    -0.336000000     3.252000000
C     3.992000000    -0.636000000     0.767000000
O     4.922000000    -0.665000000    -0.312000000
H     2.977000000    -0.595000000     0.344000000
O     4.162000000    -1.848000000     1.565000000
C     3.284000000    -2.862000000     1.352000000
C     2.339000000    -3.127000000     2.354000000
H     2.377000000    -2.658000000     3.334000000
C     1.257000000    -3.938000000     2.075000000
O     0.261000000    -3.977000000     3.042000000
C     1.264000000    -4.678000000     0.870000000
C     0.053000000    -5.559000000     0.562000000
H     0.367000000    -6.377000000    -0.090000000
C    -1.149000000    -4.796000000    -0.029000000
C    -1.322000000    -4.702000000    -1.386000000
H    -0.506000000    -5.096000000    -1.986000000
H    -0.220000000    -6.120000000     1.458000000
C     2.219000000    -4.498000000    -0.088000000
H     2.365000000    -5.088000000    -0.989000000
C     3.279000000    -3.576000000     0.129000000
C     4.375000000    -3.384000000    -0.906000000
H     4.577000000    -4.290000000    -1.480000000
H     5.333000000    -3.135000000    -0.445000000
C     3.985000000    -2.254000000    -1.820000000
C     3.213000000    -2.469000000    -3.029000000
H     2.918000000    -3.499000000    -3.210000000
C     4.231000000    -0.950000000    -1.453000000
C     3.775000000     0.143000000    -2.156000000
H     4.200000000     1.101000000    -1.868000000
C     3.037000000    -0.074000000    -3.348000000
O     2.627000000     0.986000000    -4.023000000
C     1.277000000     1.433000000    -3.676000000
C     1.269000000     2.926000000    -3.550000000
C     0.115000000     3.695000000    -3.896000000
H    -0.737000000     3.122000000    -4.253000000
C     2.427000000     3.632000000    -3.216000000
H     3.351000000     3.079000000    -3.068000000
O     0.462000000     0.899000000    -4.733000000
H     1.046000000     0.940000000    -2.720000000
C     2.779000000    -1.383000000    -3.832000000
C     1.860000000    -1.655000000    -5.016000000
H     2.013000000    -2.681000000    -5.359000000
H     1.982000000    -1.215000000    -6.008000000
C     0.393000000    -1.496000000    -4.631000000
C    -0.383000000    -2.567000000    -4.283000000
H    -0.020000000    -3.582000000    -4.424000000
C    -0.245000000    -0.214000000    -4.540000000
C    -1.619000000    -0.007000000    -4.172000000
H    -2.035000000     0.963000000    -3.911000000
C    -2.334000000    -1.160000000    -3.751000000
O    -3.574000000    -0.940000000    -3.191000000
C    -3.606000000    -1.080000000    -1.753000000
C    -4.397000000     0.091000000    -1.146000000
C    -4.205000000     1.398000000    -1.615000000
H    -3.449000000     1.521000000    -2.385000000
C    -5.286000000    -0.065000000    -0.154000000
H    -5.301000000    -1.051000000     0.304000000
O    -4.220000000    -2.362000000    -1.440000000
H    -2.566000000    -1.109000000    -1.397000000
C    -1.697000000    -2.425000000    -3.781000000
C    -2.536000000    -3.723000000    -3.421000000
H    -2.065000000    -4.549000000    -3.958000000
H    -3.570000000    -3.644000000    -3.764000000
C    -2.369000000    -3.959000000    -1.947000000
C    -3.256000000    -3.275000000    -1.070000000
C    -2.985000000    -3.334000000     0.263000000
H    -3.625000000    -2.759000000     0.927000000
C    -2.033000000    -4.140000000     0.798000000
O    -1.848000000    -4.180000000     2.185000000
C    -0.888000000    -3.246000000     2.730000000
H    -0.630000000    -2.446000000     2.021000000
C    -1.445000000    -2.523000000     3.967000000
C    -0.646000000    -2.065000000     4.992000000
H     0.428000000    -2.226000000     4.957000000
C    -2.772000000    -2.029000000     3.963000000
H    -3.454000000    -2.228000000     3.139000000
C    -3.206000000    -1.152000000     4.926000000
O    -4.413000000    -0.537000000     5.018000000
C    -2.368000000    -0.741000000     5.978000000
H    -2.779000000    -0.081000000     6.738000000
C    -1.075000000    -1.244000000     6.054000000
O    -0.255000000    -0.803000000     7.058000000
C     1.074000000    -0.654000000     6.891000000
C     1.487000000     0.330000000     6.051000000
H     0.725000000     0.919000000     5.546000000
C     2.050000000    -1.413000000     7.490000000
H     1.686000000    -2.051000000     8.292000000
C     3.405000000    -1.217000000     7.297000000
H     4.126000000    -1.831000000     7.830000000
C     3.817000000    -0.170000000     6.462000000
H     4.888000000    -0.145000000     6.278000000
C     2.845000000     0.706000000     5.895000000
O     3.238000000     1.737000000     5.073000000
C     3.577000000     1.744000000     3.736000000
C     4.156000000     2.924000000     3.183000000
H     4.084000000     3.885000000     3.685000000
C     4.694000000     2.935000000     1.913000000
O     5.197000000     4.150000000     1.587000000
C     5.413000000     4.581000000     0.299000000
C     4.370000000     4.725000000    -0.536000000
H     3.382000000     4.499000000    -0.143000000
C     6.679000000     4.730000000    -0.209000000
H     7.548000000     4.500000000     0.403000000
C     6.902000000     5.172000000    -1.507000000
H     7.940000000     5.312000000    -1.797000000
C     5.745000000     5.476000000    -2.276000000
H     5.874000000     5.955000000    -3.243000000
C     4.500000000     5.242000000    -1.761000000
O     3.381000000     5.777000000    -2.424000000
C     2.359000000     5.039000000    -3.096000000
C     1.228000000     5.702000000    -3.487000000
H     1.207000000     6.776000000    -3.319000000
C     0.071000000     5.069000000    -3.944000000
O    -1.148000000     5.694000000    -4.214000000
C    -2.429000000     5.132000000    -4.079000000
C    -2.833000000     4.761000000    -2.785000000
H    -2.251000000     4.929000000    -1.882000000
C    -3.143000000     4.893000000    -5.222000000
H    -2.770000000     5.226000000    -6.187000000
C    -4.378000000     4.223000000    -5.110000000
H    -5.064000000     4.053000000    -5.937000000
C    -4.811000000     3.831000000    -3.841000000
H    -5.813000000     3.425000000    -3.729000000
C    -4.043000000     4.116000000    -2.679000000
O    -4.517000000     3.796000000    -1.410000000
C    -4.858000000     2.508000000    -1.008000000
C    -5.874000000     2.262000000    -0.078000000
H    -6.378000000     3.106000000     0.386000000
C    -6.038000000     0.968000000     0.395000000
O    -6.984000000     0.757000000     1.306000000
C    -6.733000000    -0.202000000     2.276000000
C    -7.375000000    -1.453000000     2.240000000
H    -8.174000000    -1.585000000     1.516000000
C    -6.973000000    -2.464000000     3.126000000
H    -7.507000000    -3.410000000     3.093000000
C    -5.953000000    -2.199000000     4.105000000
H    -5.569000000    -2.864000000     4.875000000
C    -5.399000000    -0.864000000     4.113000000
C    -5.674000000     0.067000000     3.132000000
H    -5.199000000     1.045000000     3.119000000
C    -1.615000000     1.650000000     0.645000000
H    -2.377000000     2.300000000     0.222000000
C    -0.907000000     0.681000000    -0.129000000
H    -0.895000000     0.768000000    -1.212000000
C     0.035000000    -0.159000000     0.449000000
H     0.770000000    -0.694000000    -0.081000000
C     0.227000000    -0.079000000     1.891000000
H     1.050000000    -0.566000000     2.408000000
C    -0.514000000     0.809000000     2.665000000
H    -0.278000000     0.889000000     3.723000000
C    -1.476000000     1.632000000     2.046000000
C    -2.078000000     2.652000000     2.967000000
O    -1.632000000     2.760000000     4.132000000
O    -2.739000000     3.538000000     2.449000000
O     0.706000000     3.764000000     5.159000000
H     1.529000000     3.487000000     4.757000000
H     0.028000000     3.347000000     4.628000000
O     0.031000000     6.331000000     5.445000000
H    -0.853000000     6.508000000     5.123000000
H     0.170000000     5.402000000     5.264000000
O    -4.172000000     8.408000000     2.587000000
H    -3.517000000     8.557000000     1.905000000
H    -4.256000000     7.456000000     2.634000000
O    -3.788000000     2.974000000     5.810000000
H    -3.622000000     2.129000000     6.228000000
H    -3.094000000     3.059000000     5.157000000
O     2.522000000     6.056000000     2.848000000
H     2.092000000     5.419000000     2.278000000
H     1.918000000     6.798000000     2.878000000
O    -1.694000000     5.343000000     1.116000000
H    -2.071000000     4.617000000     1.613000000
H    -2.451000000     5.815000000     0.769000000
O     1.352000000     8.376000000     3.970000000
H     0.906000000     7.801000000     4.592000000
H     0.777000000     8.392000000     3.204000000
O    -0.090000000     7.333000000     1.806000000
H    -0.549000000     6.518000000     1.606000000
H     0.593000000     7.394000000     1.138000000
O    -2.570000000     5.420000000     4.648000000
H    -2.959000000     4.775000000     5.239000000
H    -2.384000000     4.928000000     3.848000000
O    -0.983000000     3.996000000     7.674000000
H    -0.470000000     3.789000000     6.893000000
H    -1.489000000     4.772000000     7.430000000
O    -4.134000000     6.646000000    -0.153000000
H    -4.870000000     6.836000000     0.429000000
H    -4.483000000     6.015000000    -0.783000000
O     0.711000000     4.132000000     1.765000000
H     0.439000000     3.223000000     1.642000000
H     0.153000000     4.632000000     1.169000000
O    -1.033000000     1.593000000     9.681000000
H    -1.949000000     1.857000000     9.762000000
H    -0.692000000     2.126000000     8.963000000
O    -2.006000000     8.924000000     0.910000000
H    -2.131000000     8.740000000    -0.021000000
H    -1.246000000     8.398000000     1.158000000
O    -2.459000000     6.210000000     7.719000000
H    -2.568000000     6.614000000     8.580000000
H    -2.786000000     6.866000000     7.103000000
O    -7.635000000     5.250000000     3.351000000
H    -6.717000000     4.994000000     3.262000000
H    -7.631000000     6.200000000     3.230000000
O    -6.205000000     4.622000000     6.638000000
H    -5.255000000     4.629000000     6.752000000
H    -6.487000000     5.490000000     6.928000000
O    -3.618000000     3.116000000     9.223000000
H    -3.451000000     3.531000000    10.069000000
H    -3.734000000     3.847000000     8.616000000
O    -5.184000000     4.057000000     3.363000000
H    -4.958000000     3.765000000     4.246000000
H    -4.418000000     3.834000000     2.834000000
