215
-1447.67200
C     3.891000000     1.690000000     1.184000000
H     3.588000000     1.763000000     0.143000000
C     4.030000000     0.444000000     1.788000000
C     4.066000000     0.377000000     3.161000000
H     4.200000000    -0.594000000     3.632000000
C     3.952000000    -0.859000000     0.905000000
O     4.795000000    -0.896000000    -0.277000000
H     2.889000000    -0.865000000     0.621000000
O     4.189000000    -2.060000000     1.649000000
C     3.165000000    -3.017000000     1.508000000
C     2.242000000    -3.045000000     2.539000000
H     2.403000000    -2.333000000     3.344000000
C     1.213000000    -3.906000000     2.480000000
O     0.264000000    -3.824000000     3.480000000
C     1.021000000    -4.692000000     1.314000000
C    -0.226000000    -5.466000000     1.075000000
H    -0.054000000    -6.421000000     0.573000000
C    -1.289000000    -4.589000000     0.506000000
C    -1.481000000    -4.603000000    -0.873000000
H    -0.881000000    -5.252000000    -1.505000000
H    -0.560000000    -5.792000000     2.063000000
C     1.990000000    -4.722000000     0.270000000
H     1.899000000    -5.436000000    -0.544000000
C     3.088000000    -3.815000000     0.365000000
C     4.112000000    -3.762000000    -0.734000000
H     3.960000000    -4.660000000    -1.336000000
H     5.094000000    -3.792000000    -0.257000000
C     3.801000000    -2.479000000    -1.650000000
C     2.969000000    -2.769000000    -2.712000000
H     2.772000000    -3.824000000    -2.887000000
C     4.207000000    -1.213000000    -1.427000000
C     3.699000000    -0.132000000    -2.184000000
H     3.945000000     0.916000000    -2.033000000
C     2.905000000    -0.477000000    -3.308000000
O     2.556000000     0.533000000    -4.156000000
C     1.227000000     0.981000000    -3.910000000
C     1.115000000     2.525000000    -3.841000000
C    -0.032000000     3.293000000    -4.100000000
H    -0.957000000     2.822000000    -4.424000000
C     2.258000000     3.244000000    -3.370000000
H     3.162000000     2.719000000    -3.070000000
O     0.304000000     0.494000000    -5.011000000
H     0.918000000     0.631000000    -2.914000000
C     2.465000000    -1.793000000    -3.538000000
C     1.698000000    -2.153000000    -4.860000000
H     1.843000000    -3.141000000    -5.301000000
H     2.135000000    -1.593000000    -5.689000000
C     0.211000000    -1.917000000    -4.604000000
C    -0.482000000    -3.012000000    -4.148000000
H     0.149000000    -3.887000000    -4.011000000
C    -0.435000000    -0.659000000    -4.799000000
C    -1.727000000    -0.550000000    -4.352000000
H    -2.282000000     0.385000000    -4.348000000
C    -2.395000000    -1.607000000    -3.808000000
O    -3.616000000    -1.258000000    -3.194000000
C    -3.672000000    -0.983000000    -1.790000000
C    -4.540000000     0.262000000    -1.553000000
C    -4.664000000     1.285000000    -2.483000000
H    -4.223000000     1.186000000    -3.471000000
C    -5.181000000     0.450000000    -0.387000000
H    -5.109000000    -0.325000000     0.372000000
O    -4.193000000    -2.108000000    -1.070000000
H    -2.673000000    -0.754000000    -1.390000000
C    -1.849000000    -2.864000000    -3.713000000
C    -2.607000000    -3.978000000    -3.013000000
H    -2.150000000    -4.928000000    -3.301000000
H    -3.666000000    -3.906000000    -3.273000000
C    -2.476000000    -3.842000000    -1.503000000
C    -3.349000000    -3.098000000    -0.643000000
C    -3.153000000    -3.146000000     0.738000000
H    -3.792000000    -2.574000000     1.407000000
C    -2.190000000    -3.904000000     1.341000000
O    -1.953000000    -3.763000000     2.695000000
C    -0.851000000    -2.963000000     3.135000000
H    -0.616000000    -2.320000000     2.274000000
C    -1.231000000    -2.011000000     4.199000000
C    -0.417000000    -1.857000000     5.356000000
H     0.384000000    -2.564000000     5.559000000
C    -2.204000000    -1.102000000     3.978000000
H    -2.858000000    -1.263000000     3.125000000
C    -2.489000000    -0.058000000     4.875000000
O    -3.606000000     0.732000000     4.840000000
C    -1.608000000     0.151000000     5.926000000
H    -1.750000000     0.920000000     6.681000000
C    -0.627000000    -0.759000000     6.141000000
O     0.230000000    -0.446000000     7.195000000
C     1.573000000    -0.367000000     7.068000000
C     2.198000000     0.675000000     6.383000000
H     1.578000000     1.416000000     5.884000000
C     2.362000000    -1.384000000     7.685000000
H     1.945000000    -2.221000000     8.239000000
C     3.745000000    -1.218000000     7.695000000
H     4.438000000    -1.965000000     8.076000000
C     4.363000000    -0.232000000     6.970000000
H     5.427000000    -0.153000000     6.763000000
C     3.531000000     0.599000000     6.161000000
O     4.106000000     1.541000000     5.309000000
C     4.090000000     1.554000000     3.939000000
C     4.120000000     2.843000000     3.357000000
H     4.190000000     3.728000000     3.985000000
C     4.032000000     2.882000000     1.977000000
O     3.979000000     4.093000000     1.409000000
C     4.645000000     4.337000000     0.222000000
C     3.874000000     4.854000000    -0.759000000
H     2.792000000     4.807000000    -0.660000000
C     5.949000000     3.914000000    -0.036000000
H     6.467000000     3.287000000     0.685000000
C     6.420000000     4.054000000    -1.290000000
H     7.370000000     3.621000000    -1.594000000
C     5.644000000     4.589000000    -2.351000000
H     6.029000000     4.479000000    -3.362000000
C     4.331000000     4.945000000    -2.067000000
O     3.437000000     5.366000000    -3.058000000
C     2.299000000     4.616000000    -3.295000000
C     1.122000000     5.345000000    -3.582000000
H     1.252000000     6.424000000    -3.560000000
C     0.002000000     4.694000000    -4.032000000
O    -1.141000000     5.390000000    -4.183000000
C    -2.321000000     4.801000000    -4.621000000
C    -3.287000000     4.511000000    -3.712000000
H    -2.975000000     4.668000000    -2.682000000
C    -2.543000000     4.457000000    -5.961000000
H    -1.780000000     4.598000000    -6.722000000
C    -3.720000000     3.747000000    -6.300000000
H    -3.866000000     3.460000000    -7.338000000
C    -4.687000000     3.505000000    -5.327000000
H    -5.654000000     3.073000000    -5.572000000
C    -4.417000000     3.812000000    -4.024000000
O    -5.329000000     3.561000000    -3.046000000
C    -5.368000000     2.457000000    -2.211000000
C    -5.881000000     2.656000000    -0.957000000
H    -6.241000000     3.656000000    -0.728000000
C    -5.840000000     1.616000000     0.006000000
O    -6.420000000     1.943000000     1.213000000
C    -6.167000000     1.167000000     2.310000000
C    -7.021000000     0.031000000     2.549000000
H    -7.896000000    -0.113000000     1.921000000
C    -6.791000000    -0.749000000     3.703000000
H    -7.531000000    -1.465000000     4.051000000
C    -5.650000000    -0.512000000     4.468000000
H    -5.334000000    -1.144000000     5.294000000
C    -4.767000000     0.522000000     4.097000000
C    -5.118000000     1.491000000     3.111000000
H    -4.451000000     2.299000000     2.822000000
C    -1.221000000     1.825000000    -0.236000000
H    -1.848000000     2.467000000    -0.850000000
C    -0.639000000     0.703000000    -0.802000000
H    -0.762000000     0.500000000    -1.863000000
C     0.122000000    -0.174000000    -0.093000000
H     0.617000000    -1.031000000    -0.619000000
C     0.227000000     0.120000000     1.280000000
H     0.889000000    -0.492000000     1.887000000
C    -0.399000000     1.239000000     1.859000000
H    -0.262000000     1.456000000     2.915000000
C    -1.117000000     2.133000000     1.075000000
C    -1.700000000     3.424000000     1.641000000
O    -1.781000000     3.525000000     2.850000000
O    -2.159000000     4.233000000     0.867000000
O     0.313000000     3.472000000     4.674000000
H     0.968000000     3.939000000     4.155000000
H    -0.409000000     3.318000000     4.065000000
O    -3.096000000     3.998000000     4.998000000
H    -3.310000000     3.107000000     5.275000000
H    -2.534000000     3.881000000     4.232000000
O     3.446000000     6.647000000     4.144000000
H     3.620000000     5.896000000     4.712000000
H     3.127000000     6.261000000     3.328000000
O     1.939000000     5.643000000     2.285000000
H     2.507000000     5.251000000     1.622000000
H     1.089000000     5.725000000     1.854000000
O    -1.966000000     7.573000000    -1.497000000
H    -2.194000000     7.829000000    -2.391000000
H    -2.772000000     7.198000000    -1.143000000
O    -1.627000000     6.424000000     3.129000000
H    -2.505000000     6.685000000     2.852000000
H    -1.675000000     5.472000000     3.211000000
O    -1.519000000     6.897000000     7.182000000
H    -1.364000000     7.088000000     6.257000000
H    -2.360000000     7.312000000     7.374000000
O    -0.007000000     4.186000000     7.478000000
H    -0.449000000     4.995000000     7.222000000
H     0.273000000     3.793000000     6.651000000
O    -4.423000000     8.072000000     2.421000000
H    -4.309000000     7.407000000     1.742000000
H    -5.096000000     7.712000000     2.998000000
O     0.226000000     9.013000000     1.183000000
H    -0.348000000     8.306000000     0.887000000
H     1.105000000     8.635000000     1.156000000
O    -6.315000000     8.234000000    -0.831000000
H    -5.837000000     7.433000000    -1.048000000
H    -7.225000000     8.037000000    -1.053000000
O     0.224000000     8.720000000    -2.748000000
H    -0.289000000     8.090000000    -2.243000000
H     0.461000000     9.398000000    -2.116000000
O    -4.248000000     5.659000000     0.880000000
H    -3.462000000     5.116000000     0.824000000
H    -4.804000000     5.212000000     1.518000000
O    -0.396000000     6.285000000     0.601000000
H    -1.073000000     5.649000000     0.830000000
H    -0.714000000     6.694000000    -0.203000000
O     0.483000000     7.179000000     4.716000000
H     1.199000000     6.921000000     4.137000000
H    -0.278000000     7.250000000     4.140000000
O    -5.347000000     6.044000000    -1.938000000
H    -5.863000000     5.478000000    -2.512000000
H    -4.886000000     5.439000000    -1.356000000
O    -3.075000000     4.730000000     7.965000000
H    -3.447000000     4.332000000     7.177000000
H    -2.649000000     5.528000000     7.652000000
O    -4.685000000     2.297000000     7.148000000
H    -5.610000000     2.466000000     7.327000000
H    -4.643000000     1.356000000     6.975000000
O    -5.256000000     4.978000000     3.457000000
H    -5.718000000     5.071000000     4.290000000
H    -4.352000000     4.784000000     3.705000000
