215
-1423.32171
C     4.709000000     0.551000000     2.415000000
H     5.115000000     0.770000000     1.431000000
C     3.923000000    -0.576000000     2.526000000
C     3.324000000    -0.862000000     3.719000000
H     2.611000000    -1.676000000     3.619000000
C     3.726000000    -1.425000000     1.331000000
O     4.818000000    -1.299000000     0.344000000
H     2.752000000    -1.134000000     0.911000000
O     3.609000000    -2.825000000     1.738000000
C     2.609000000    -3.523000000     1.164000000
C     1.499000000    -3.763000000     1.959000000
H     1.442000000    -3.547000000     3.023000000
C     0.386000000    -4.466000000     1.373000000
O    -0.776000000    -4.502000000     2.049000000
C     0.432000000    -4.871000000     0.043000000
C    -0.875000000    -5.565000000    -0.617000000
H    -0.588000000    -6.206000000    -1.453000000
C    -1.810000000    -4.463000000    -1.120000000
C    -1.552000000    -3.996000000    -2.442000000
H    -0.887000000    -4.535000000    -3.112000000
H    -1.403000000    -6.366000000    -0.095000000
C     1.564000000    -4.563000000    -0.809000000
H     1.604000000    -4.823000000    -1.864000000
C     2.650000000    -3.902000000    -0.183000000
C     3.856000000    -3.606000000    -1.075000000
H     3.984000000    -4.438000000    -1.770000000
H     4.750000000    -3.634000000    -0.449000000
C     3.868000000    -2.241000000    -1.722000000
C     3.381000000    -2.061000000    -3.027000000
H     3.063000000    -2.919000000    -3.614000000
C     4.389000000    -1.193000000    -0.992000000
C     4.185000000     0.098000000    -1.488000000
H     4.517000000     0.903000000    -0.837000000
C     3.627000000     0.316000000    -2.747000000
O     3.463000000     1.574000000    -3.103000000
C     2.114000000     2.067000000    -2.952000000
C     2.202000000     3.471000000    -2.374000000
C     1.224000000     4.377000000    -2.799000000
H     0.451000000     4.084000000    -3.504000000
C     3.066000000     3.867000000    -1.427000000
H     3.684000000     3.064000000    -1.035000000
O     1.372000000     1.980000000    -4.221000000
H     1.634000000     1.441000000    -2.185000000
C     3.165000000    -0.753000000    -3.510000000
C     2.517000000    -0.558000000    -4.866000000
H     2.670000000    -1.387000000    -5.560000000
H     3.025000000     0.226000000    -5.431000000
C     1.037000000    -0.330000000    -4.757000000
C     0.143000000    -1.398000000    -4.792000000
H     0.640000000    -2.356000000    -4.925000000
C     0.562000000     0.913000000    -4.482000000
C    -0.830000000     1.159000000    -4.342000000
H    -1.194000000     2.162000000    -4.134000000
C    -1.702000000     0.108000000    -4.329000000
O    -2.970000000     0.332000000    -4.025000000
C    -3.288000000    -0.065000000    -2.702000000
C    -3.948000000     1.037000000    -1.864000000
C    -3.610000000     2.398000000    -2.040000000
H    -2.751000000     2.685000000    -2.640000000
C    -4.866000000     0.734000000    -0.867000000
H    -5.242000000    -0.268000000    -0.679000000
O    -4.006000000    -1.267000000    -2.695000000
H    -2.364000000    -0.121000000    -2.107000000
C    -1.212000000    -1.203000000    -4.553000000
C    -2.082000000    -2.424000000    -4.388000000
H    -1.676000000    -3.209000000    -5.029000000
H    -3.052000000    -2.208000000    -4.842000000
C    -2.281000000    -2.894000000    -2.959000000
C    -3.266000000    -2.310000000    -2.159000000
C    -3.594000000    -2.832000000    -0.982000000
H    -4.480000000    -2.466000000    -0.471000000
C    -2.784000000    -3.861000000    -0.381000000
O    -2.927000000    -4.141000000     0.974000000
C    -1.809000000    -3.584000000     1.767000000
H    -1.401000000    -2.752000000     1.175000000
C    -2.296000000    -2.965000000     3.060000000
C    -1.546000000    -2.899000000     4.217000000
H    -0.583000000    -3.403000000     4.226000000
C    -3.591000000    -2.415000000     3.044000000
H    -4.147000000    -2.495000000     2.113000000
C    -4.080000000    -1.824000000     4.143000000
O    -5.380000000    -1.306000000     4.166000000
C    -3.337000000    -1.749000000     5.358000000
H    -3.709000000    -1.222000000     6.232000000
C    -2.087000000    -2.320000000     5.409000000
O    -1.361000000    -2.119000000     6.578000000
C    -0.008000000    -2.369000000     6.614000000
C     0.866000000    -1.336000000     6.446000000
H     0.519000000    -0.314000000     6.311000000
C     0.535000000    -3.699000000     6.588000000
H    -0.111000000    -4.543000000     6.815000000
C     1.889000000    -3.845000000     6.415000000
H     2.292000000    -4.852000000     6.490000000
C     2.696000000    -2.724000000     6.210000000
H     3.769000000    -2.861000000     6.100000000
C     2.202000000    -1.467000000     6.299000000
O     2.857000000    -0.305000000     6.040000000
C     3.451000000    -0.050000000     4.799000000
C     4.185000000     1.100000000     4.672000000
H     4.300000000     1.796000000     5.499000000
C     4.822000000     1.423000000     3.467000000
O     5.451000000     2.659000000     3.398000000
C     5.685000000     3.400000000     2.224000000
C     4.723000000     4.287000000     1.633000000
H     3.779000000     4.510000000     2.124000000
C     6.916000000     3.184000000     1.493000000
H     7.653000000     2.534000000     1.958000000
C     7.193000000     3.977000000     0.389000000
H     8.068000000     3.776000000    -0.224000000
C     6.196000000     4.764000000    -0.255000000
H     6.457000000     5.251000000    -1.191000000
C     4.998000000     4.945000000     0.426000000
O     4.063000000     5.732000000    -0.159000000
C     3.174000000     5.246000000    -1.103000000
C     2.316000000     6.157000000    -1.738000000
H     2.467000000     7.179000000    -1.402000000
C     1.304000000     5.729000000    -2.550000000
O     0.284000000     6.643000000    -3.033000000
C    -1.048000000     6.352000000    -3.201000000
C    -1.799000000     5.478000000    -2.332000000
H    -1.356000000     5.238000000    -1.369000000
C    -1.702000000     6.738000000    -4.367000000
H    -1.068000000     7.100000000    -5.173000000
C    -3.074000000     6.433000000    -4.556000000
H    -3.545000000     6.790000000    -5.469000000
C    -3.811000000     5.829000000    -3.572000000
H    -4.881000000     5.755000000    -3.746000000
C    -3.139000000     5.379000000    -2.485000000
O    -3.770000000     4.824000000    -1.438000000
C    -4.163000000     3.482000000    -1.330000000
C    -5.227000000     3.135000000    -0.482000000
H    -5.745000000     3.917000000     0.068000000
C    -5.533000000     1.807000000    -0.231000000
O    -6.625000000     1.568000000     0.572000000
C    -6.832000000     0.416000000     1.218000000
C    -7.800000000    -0.545000000     0.762000000
H    -8.296000000    -0.347000000    -0.184000000
C    -7.734000000    -1.845000000     1.402000000
H    -8.254000000    -2.666000000     0.916000000
C    -6.927000000    -2.035000000     2.466000000
H    -6.916000000    -2.997000000     2.972000000
C    -6.091000000    -1.043000000     2.994000000
C    -6.120000000     0.180000000     2.390000000
H    -5.486000000     0.953000000     2.816000000
C    -2.069000000     0.887000000     2.967000000
H    -3.020000000     1.104000000     3.445000000
C    -2.129000000     0.292000000     1.746000000
H    -3.020000000    -0.093000000     1.257000000
C    -0.910000000     0.125000000     1.006000000
H    -0.925000000    -0.417000000     0.031000000
C     0.325000000     0.519000000     1.555000000
H     1.243000000     0.300000000     1.016000000
C     0.317000000     1.096000000     2.890000000
H     1.252000000     1.403000000     3.352000000
C    -0.869000000     1.283000000     3.619000000
C    -0.842000000     2.052000000     4.939000000
O     0.156000000     2.502000000     5.495000000
O    -1.841000000     2.210000000     5.516000000
O     1.154000000     4.830000000     3.861000000
H     0.713000000     4.116000000     4.320000000
H     2.038000000     4.842000000     4.230000000
O     0.351000000     7.650000000     3.091000000
H     1.277000000     7.733000000     2.866000000
H     0.041000000     6.916000000     2.562000000
O    -4.723000000     1.685000000     5.831000000
H    -5.038000000     2.568000000     5.635000000
H    -3.775000000     1.738000000     5.715000000
O     1.029000000     5.374000000     1.338000000
H     1.100000000     5.293000000     2.289000000
H     0.326000000     4.771000000     1.098000000
O    -4.349000000    -2.195000000     8.611000000
H    -4.003000000    -1.381000000     8.245000000
H    -4.902000000    -1.914000000     9.340000000
O    -1.717000000     4.188000000     7.347000000
H    -1.721000000     3.480000000     6.704000000
H    -0.815000000     4.508000000     7.345000000
O    -3.776000000     3.376000000     8.830000000
H    -4.416000000     3.065000000     8.191000000
H    -2.986000000     3.544000000     8.316000000
O    -0.886000000     0.972000000     7.941000000
H    -0.695000000     1.790000000     7.483000000
H    -1.452000000     0.488000000     7.340000000
O     0.573000000     5.505000000     8.677000000
H     1.482000000     5.672000000     8.427000000
H     0.189000000     6.375000000     8.779000000
O    -5.981000000     5.286000000     3.482000000
H    -6.090000000     6.228000000     3.355000000
H    -5.211000000     5.061000000     2.959000000
O     2.176000000     2.608000000     7.076000000
H     2.666000000     1.794000000     6.963000000
H     1.489000000     2.569000000     6.411000000
O     4.574000000     4.508000000     7.671000000
H     5.508000000     4.316000000     7.589000000
H     4.139000000     3.711000000     7.367000000
O    -2.497000000     6.784000000     3.689000000
H    -1.866000000     7.504000000     3.716000000
H    -2.679000000     6.591000000     4.608000000
O    -1.486000000     3.286000000     0.765000000
H    -1.712000000     2.714000000     0.032000000
H    -1.287000000     2.687000000     1.484000000
O     0.947000000     0.039000000     9.475000000
H     0.116000000     0.102000000     9.004000000
H     1.180000000     0.946000000     9.674000000
O    -2.669000000     6.532000000     6.288000000
H    -3.525000000     6.803000000     6.620000000
H    -2.524000000     5.670000000     6.678000000
O    -3.656000000     4.320000000     2.254000000
H    -3.189000000     4.970000000     2.779000000
H    -2.982000000     3.938000000     1.691000000
O     1.484000000     3.063000000     9.667000000
H     1.624000000     3.073000000     8.721000000
H     1.182000000     3.948000000     9.873000000
O    -5.665000000     4.489000000     6.173000000
H    -5.905000000     4.762000000     5.288000000
H    -5.360000000     5.291000000     6.597000000
