215
-1451.61102
C     3.545000000    -0.530000000    -3.828000000
H     3.122000000    -1.441000000    -4.244000000
C     3.873000000    -0.474000000    -2.447000000
C     4.390000000     0.752000000    -1.940000000
H     4.568000000     0.824000000    -0.870000000
C     3.533000000    -1.621000000    -1.474000000
O     3.494000000    -2.939000000    -2.056000000
H     2.526000000    -1.319000000    -1.150000000
O     4.447000000    -1.626000000    -0.366000000
C     3.868000000    -2.008000000     0.858000000
C     3.821000000    -0.876000000     1.693000000
H     4.191000000     0.100000000     1.390000000
C     3.223000000    -0.955000000     2.883000000
O     3.112000000     0.144000000     3.620000000
C     2.669000000    -2.151000000     3.340000000
C     1.909000000    -2.216000000     4.645000000
H     1.961000000    -3.237000000     5.030000000
C     0.423000000    -1.718000000     4.599000000
C    -0.545000000    -2.655000000     4.431000000
H    -0.212000000    -3.687000000     4.362000000
H     2.333000000    -1.574000000     5.420000000
C     2.733000000    -3.269000000     2.526000000
H     2.179000000    -4.150000000     2.841000000
C     3.339000000    -3.187000000     1.248000000
C     3.524000000    -4.367000000     0.360000000
H     3.621000000    -5.260000000     0.980000000
H     4.434000000    -4.254000000    -0.235000000
C     2.396000000    -4.503000000    -0.587000000
C     1.196000000    -5.173000000    -0.233000000
H     1.133000000    -5.765000000     0.677000000
C     2.428000000    -3.742000000    -1.733000000
C     1.418000000    -3.784000000    -2.621000000
H     1.473000000    -3.116000000    -3.477000000
C     0.192000000    -4.350000000    -2.262000000
O    -0.828000000    -4.066000000    -3.123000000
C    -1.726000000    -3.083000000    -2.707000000
C    -2.182000000    -2.146000000    -3.903000000
C    -3.387000000    -1.388000000    -3.817000000
H    -3.956000000    -1.389000000    -2.892000000
C    -1.320000000    -1.860000000    -4.952000000
H    -0.383000000    -2.405000000    -5.027000000
O    -2.852000000    -3.495000000    -1.992000000
H    -1.233000000    -2.360000000    -2.041000000
C     0.096000000    -5.027000000    -1.079000000
C    -1.294000000    -5.474000000    -0.593000000
H    -1.047000000    -6.308000000     0.068000000
H    -1.942000000    -5.846000000    -1.388000000
C    -2.079000000    -4.339000000     0.149000000
C    -2.058000000    -4.345000000     1.548000000
H    -1.383000000    -4.994000000     2.099000000
C    -2.828000000    -3.432000000    -0.595000000
C    -3.571000000    -2.399000000    -0.011000000
H    -3.961000000    -1.603000000    -0.639000000
C    -3.550000000    -2.382000000     1.399000000
O    -4.219000000    -1.322000000     1.879000000
C    -3.451000000    -0.259000000     2.371000000
C    -3.957000000     1.142000000     1.965000000
C    -4.644000000     1.407000000     0.722000000
H    -4.871000000     0.622000000     0.005000000
C    -3.732000000     2.261000000     2.813000000
H    -3.349000000     2.197000000     3.828000000
O    -3.397000000    -0.409000000     3.792000000
H    -2.436000000    -0.430000000     1.982000000
C    -2.853000000    -3.341000000     2.180000000
C    -2.849000000    -3.210000000     3.712000000
H    -2.719000000    -4.176000000     4.203000000
H    -3.825000000    -2.790000000     3.966000000
C    -1.852000000    -2.197000000     4.237000000
C    -2.155000000    -0.848000000     4.250000000
C    -1.212000000     0.083000000     4.525000000
H    -1.436000000     1.147000000     4.530000000
C     0.112000000    -0.345000000     4.655000000
O     1.075000000     0.611000000     4.688000000
C     1.887000000     0.888000000     3.540000000
H     1.304000000     0.661000000     2.635000000
C     2.135000000     2.365000000     3.466000000
C     3.215000000     2.880000000     2.751000000
H     3.888000000     2.215000000     2.215000000
C     1.218000000     3.264000000     4.015000000
H     0.292000000     2.914000000     4.463000000
C     1.451000000     4.617000000     3.992000000
O     0.673000000     5.631000000     4.583000000
C     2.543000000     5.107000000     3.363000000
H     2.746000000     6.175000000     3.358000000
C     3.494000000     4.292000000     2.744000000
O     4.618000000     4.879000000     2.162000000
C     5.331000000     4.310000000     1.126000000
C     4.713000000     3.943000000    -0.062000000
H     3.699000000     4.305000000    -0.215000000
C     6.658000000     3.878000000     1.378000000
H     7.120000000     3.986000000     2.357000000
C     7.344000000     3.114000000     0.498000000
H     8.421000000     3.021000000     0.607000000
C     6.767000000     2.805000000    -0.718000000
H     7.301000000     2.249000000    -1.485000000
C     5.503000000     3.288000000    -1.032000000
O     4.969000000     3.029000000    -2.277000000
C     4.641000000     1.780000000    -2.782000000
C     4.390000000     1.689000000    -4.132000000
H     4.640000000     2.529000000    -4.775000000
C     3.842000000     0.518000000    -4.661000000
O     3.608000000     0.456000000    -6.035000000
C     2.683000000    -0.339000000    -6.627000000
C     1.320000000    -0.030000000    -6.446000000
H     0.970000000     0.772000000    -5.801000000
C     3.159000000    -1.304000000    -7.457000000
H     4.231000000    -1.466000000    -7.540000000
C     2.211000000    -2.242000000    -7.938000000
H     2.396000000    -3.196000000    -8.426000000
C     0.858000000    -2.059000000    -7.644000000
H     0.110000000    -2.785000000    -7.951000000
C     0.411000000    -0.879000000    -7.035000000
O    -0.946000000    -0.642000000    -7.042000000
C    -1.698000000    -0.970000000    -5.953000000
C    -2.950000000    -0.341000000    -5.908000000
H    -3.203000000     0.443000000    -6.618000000
C    -3.812000000    -0.578000000    -4.855000000
O    -4.954000000     0.219000000    -4.856000000
C    -5.724000000     0.672000000    -3.760000000
C    -5.192000000     1.589000000    -2.875000000
H    -4.213000000     2.024000000    -3.061000000
C    -7.070000000     0.199000000    -3.654000000
H    -7.470000000    -0.501000000    -4.383000000
C    -7.823000000     0.779000000    -2.585000000
H    -8.855000000     0.516000000    -2.368000000
C    -7.316000000     1.704000000    -1.704000000
H    -8.006000000     2.193000000    -1.021000000
C    -5.954000000     2.083000000    -1.791000000
O    -5.442000000     3.022000000    -0.908000000
C    -4.906000000     2.730000000     0.314000000
C    -4.641000000     3.764000000     1.222000000
H    -4.853000000     4.794000000     0.947000000
C    -4.059000000     3.572000000     2.483000000
O    -3.878000000     4.600000000     3.276000000
C    -2.916000000     4.886000000     4.233000000
C    -3.346000000     5.215000000     5.532000000
H    -4.372000000     5.019000000     5.832000000
C    -2.421000000     5.564000000     6.533000000
H    -2.684000000     5.790000000     7.563000000
C    -1.110000000     5.766000000     6.147000000
H    -0.455000000     6.082000000     6.955000000
C    -0.649000000     5.405000000     4.895000000
C    -1.575000000     4.959000000     3.951000000
H    -1.301000000     4.540000000     2.987000000
C    -0.801000000     1.469000000    -2.881000000
H    -0.939000000     1.864000000    -3.885000000
C    -0.188000000     0.235000000    -2.564000000
H     0.283000000    -0.344000000    -3.354000000
C    -0.170000000    -0.262000000    -1.249000000
H     0.228000000    -1.311000000    -1.036000000
C    -0.699000000     0.500000000    -0.161000000
H    -0.765000000    -0.023000000     0.790000000
C    -1.328000000     1.657000000    -0.505000000
H    -1.807000000     2.201000000     0.305000000
C    -1.385000000     2.168000000    -1.878000000
C    -2.127000000     3.397000000    -2.135000000
O    -2.270000000     4.121000000    -1.244000000
O    -2.503000000     3.648000000    -3.271000000
O    -0.192000000     4.508000000     0.203000000
H    -0.910000000     4.163000000    -0.328000000
H     0.553000000     4.543000000    -0.397000000
O     1.522000000     8.143000000    -3.603000000
H     0.727000000     7.610000000    -3.616000000
H     2.026000000     7.803000000    -2.865000000
O    -1.396000000     8.428000000    -1.894000000
H    -1.262000000     7.537000000    -2.217000000
H    -2.076000000     8.341000000    -1.226000000
O    -5.204000000     5.652000000    -1.716000000
H    -5.255000000     4.746000000    -1.412000000
H    -4.357000000     5.965000000    -1.397000000
O    -2.925000000     6.495000000    -0.469000000
H    -2.639000000     5.680000000    -0.881000000
H    -2.398000000     6.558000000     0.328000000
O    -2.842000000     2.762000000    -5.679000000
H    -2.539000000     3.003000000    -4.803000000
H    -3.775000000     2.974000000    -5.676000000
O    -8.261000000     5.812000000    -2.417000000
H    -8.596000000     5.599000000    -1.546000000
H    -7.362000000     6.103000000    -2.263000000
O    -1.345000000     2.082000000    -7.941000000
H    -1.808000000     2.516000000    -7.224000000
H    -1.273000000     1.170000000    -7.660000000
O     1.917000000     4.197000000    -2.086000000
H     2.510000000     3.484000000    -2.320000000
H     1.718000000     4.626000000    -2.918000000
O    -1.563000000     7.772000000    -6.385000000
H    -0.725000000     8.035000000    -6.766000000
H    -1.712000000     6.888000000    -6.723000000
O    -5.994000000     2.987000000    -6.124000000
H    -5.521000000     3.313000000    -5.359000000
H    -6.860000000     2.755000000    -5.789000000
O     2.385000000     5.397000000    -4.796000000
H     3.340000000     5.332000000    -4.790000000
H     2.143000000     5.284000000    -5.716000000
O    -5.163000000     6.284000000    -6.519000000
H    -6.111000000     6.153000000    -6.512000000
H    -4.804000000     5.450000000    -6.217000000
O     2.915000000     6.591000000    -1.703000000
H     2.412000000     5.778000000    -1.655000000
H     3.803000000     6.310000000    -1.921000000
O    -0.959000000     5.992000000    -3.104000000
H    -1.047000000     5.449000000    -2.320000000
H    -1.480000000     5.540000000    -3.768000000
O    -0.999000000     6.658000000     1.599000000
H    -0.257000000     7.206000000     1.854000000
H    -0.600000000     5.855000000     1.264000000
O    -4.667000000     4.508000000    -4.256000000
H    -5.084000000     4.986000000    -3.540000000
H    -3.817000000     4.243000000    -3.905000000
O    -4.048000000     9.045000000     0.212000000
H    -3.742000000     8.142000000     0.125000000
H    -4.982000000     8.963000000     0.405000000
O    -4.844000000     8.266000000    -2.759000000
H    -5.078000000     7.346000000    -2.639000000
H    -4.138000000     8.250000000    -3.406000000
