215
-1474.93258
C     4.356000000     0.105000000     2.358000000
H     4.860000000    -0.021000000     1.404000000
C     3.435000000    -0.855000000     2.839000000
C     2.868000000    -0.731000000     4.117000000
H     2.074000000    -1.384000000     4.472000000
C     2.997000000    -2.030000000     1.947000000
O     4.025000000    -2.399000000     1.011000000
H     2.132000000    -1.705000000     1.350000000
O     2.742000000    -3.222000000     2.740000000
C     1.613000000    -3.802000000     2.348000000
C     0.494000000    -3.474000000     3.097000000
H     0.555000000    -2.796000000     3.944000000
C    -0.758000000    -3.892000000     2.602000000
O    -1.939000000    -3.491000000     3.182000000
C    -0.831000000    -4.557000000     1.331000000
C    -2.168000000    -4.997000000     0.768000000
H    -2.069000000    -5.924000000     0.199000000
C    -2.762000000    -3.833000000    -0.108000000
C    -2.533000000    -3.912000000    -1.460000000
H    -2.115000000    -4.784000000    -1.955000000
H    -2.926000000    -5.247000000     1.513000000
C     0.306000000    -4.810000000     0.608000000
H     0.282000000    -5.318000000    -0.352000000
C     1.568000000    -4.536000000     1.128000000
C     2.809000000    -4.823000000     0.284000000
H     2.704000000    -5.750000000    -0.285000000
H     3.673000000    -4.929000000     0.942000000
C     3.013000000    -3.715000000    -0.664000000
C     2.494000000    -3.850000000    -1.912000000
H     1.920000000    -4.721000000    -2.217000000
C     3.755000000    -2.535000000    -0.333000000
C     3.898000000    -1.478000000    -1.195000000
H     4.373000000    -0.565000000    -0.845000000
C     3.394000000    -1.674000000    -2.513000000
O     3.575000000    -0.595000000    -3.411000000
C     2.492000000     0.309000000    -3.482000000
C     2.867000000     1.817000000    -3.374000000
C     2.187000000     2.773000000    -4.109000000
H     1.367000000     2.422000000    -4.731000000
C     3.938000000     2.176000000    -2.583000000
H     4.534000000     1.470000000    -2.011000000
O     1.813000000     0.015000000    -4.731000000
H     1.685000000     0.165000000    -2.749000000
C     2.746000000    -2.839000000    -2.906000000
C     2.137000000    -2.847000000    -4.301000000
H     1.976000000    -3.860000000    -4.673000000
H     2.791000000    -2.381000000    -5.041000000
C     0.789000000    -2.152000000    -4.375000000
C    -0.382000000    -2.845000000    -4.079000000
H    -0.165000000    -3.849000000    -3.724000000
C     0.808000000    -0.750000000    -4.635000000
C    -0.390000000    -0.099000000    -4.615000000
H    -0.333000000     0.967000000    -4.822000000
C    -1.600000000    -0.771000000    -4.329000000
O    -2.699000000    -0.034000000    -4.110000000
C    -3.058000000     0.226000000    -2.749000000
C    -3.621000000     1.624000000    -2.589000000
C    -2.984000000     2.664000000    -3.223000000
H    -2.207000000     2.553000000    -3.975000000
C    -4.570000000     1.912000000    -1.495000000
H    -4.978000000     1.125000000    -0.866000000
O    -4.045000000    -0.750000000    -2.407000000
H    -2.189000000     0.119000000    -2.083000000
C    -1.544000000    -2.164000000    -4.045000000
C    -2.814000000    -2.890000000    -3.729000000
H    -2.797000000    -3.903000000    -4.136000000
H    -3.580000000    -2.358000000    -4.298000000
C    -3.068000000    -2.934000000    -2.202000000
C    -3.663000000    -1.815000000    -1.641000000
C    -3.961000000    -1.845000000    -0.295000000
H    -4.427000000    -0.991000000     0.191000000
C    -3.517000000    -2.847000000     0.452000000
O    -3.740000000    -2.891000000     1.820000000
C    -2.610000000    -2.357000000     2.589000000
H    -1.872000000    -1.910000000     1.905000000
C    -2.991000000    -1.291000000     3.591000000
C    -2.315000000    -1.194000000     4.798000000
H    -1.548000000    -1.911000000     5.080000000
C    -4.067000000    -0.354000000     3.392000000
H    -4.670000000    -0.430000000     2.492000000
C    -4.320000000     0.678000000     4.318000000
O    -5.161000000     1.680000000     4.057000000
C    -3.492000000     0.844000000     5.433000000
H    -3.663000000     1.736000000     6.031000000
C    -2.565000000    -0.131000000     5.701000000
O    -1.858000000    -0.009000000     6.942000000
C    -0.468000000    -0.292000000     7.151000000
C     0.532000000     0.271000000     6.398000000
H     0.308000000     1.058000000     5.682000000
C    -0.181000000    -1.226000000     8.136000000
H    -0.931000000    -1.723000000     8.746000000
C     1.147000000    -1.615000000     8.383000000
H     1.324000000    -2.353000000     9.161000000
C     2.165000000    -1.032000000     7.686000000
H     3.192000000    -1.376000000     7.782000000
C     1.834000000    -0.076000000     6.697000000
O     2.955000000     0.532000000     6.193000000
C     3.414000000     0.286000000     4.932000000
C     4.412000000     1.135000000     4.488000000
H     4.713000000     1.998000000     5.076000000
C     4.947000000     1.041000000     3.227000000
O     5.871000000     1.952000000     2.764000000
C     6.235000000     2.022000000     1.454000000
C     5.533000000     2.873000000     0.589000000
H     4.622000000     3.338000000     0.958000000
C     7.401000000     1.390000000     0.975000000
H     7.906000000     0.701000000     1.647000000
C     7.862000000     1.511000000    -0.292000000
H     8.681000000     0.862000000    -0.594000000
C     7.225000000     2.381000000    -1.171000000
H     7.426000000     2.406000000    -2.239000000
C     6.085000000     3.062000000    -0.709000000
O     5.380000000     3.846000000    -1.668000000
C     4.341000000     3.510000000    -2.502000000
C     3.713000000     4.487000000    -3.331000000
H     4.016000000     5.528000000    -3.260000000
C     2.542000000     4.131000000    -4.044000000
O     1.938000000     4.977000000    -4.829000000
C     0.568000000     4.993000000    -5.050000000
C    -0.414000000     4.965000000    -4.006000000
H    -0.151000000     4.688000000    -2.989000000
C     0.252000000     5.261000000    -6.360000000
H     1.073000000     5.481000000    -7.036000000
C    -1.079000000     5.434000000    -6.758000000
H    -1.202000000     5.789000000    -7.778000000
C    -2.026000000     5.261000000    -5.748000000
H    -3.065000000     5.241000000    -6.066000000
C    -1.730000000     5.125000000    -4.387000000
O    -2.779000000     5.076000000    -3.484000000
C    -3.320000000     3.980000000    -2.883000000
C    -4.158000000     4.239000000    -1.783000000
H    -4.539000000     5.246000000    -1.636000000
C    -4.819000000     3.193000000    -1.149000000
O    -5.809000000     3.565000000    -0.323000000
C    -6.262000000     2.833000000     0.741000000
C    -7.508000000     2.261000000     0.629000000
H    -8.000000000     2.350000000    -0.336000000
C    -7.988000000     1.491000000     1.663000000
H    -8.946000000     1.005000000     1.503000000
C    -7.248000000     1.262000000     2.830000000
H    -7.609000000     0.642000000     3.646000000
C    -5.939000000     1.796000000     2.908000000
C    -5.414000000     2.556000000     1.842000000
H    -4.454000000     3.059000000     1.924000000
C    -1.050000000     1.898000000     1.538000000
H    -1.944000000     2.165000000     2.096000000
C    -1.202000000     1.135000000     0.367000000
H    -2.219000000     0.980000000     0.014000000
C    -0.070000000     0.552000000    -0.138000000
H    -0.089000000    -0.113000000    -0.992000000
C     1.192000000     0.804000000     0.363000000
H     2.084000000     0.362000000    -0.071000000
C     1.349000000     1.708000000     1.418000000
H     2.373000000     1.786000000     1.774000000
C     0.232000000     2.236000000     2.051000000
C     0.369000000     3.191000000     3.218000000
O     1.494000000     3.458000000     3.625000000
O    -0.633000000     3.566000000     3.804000000
O     6.233000000     5.083000000     3.401000000
H     6.802000000     4.488000000     3.889000000
H     5.415000000     5.095000000     3.899000000
O     1.823000000     4.681000000    -0.552000000
H     2.256000000     4.868000000     0.281000000
H     2.519000000     4.337000000    -1.112000000
O    -4.440000000     6.218000000     3.332000000
H    -3.726000000     5.598000000     3.186000000
H    -4.201000000     6.986000000     2.813000000
O     1.860000000     7.260000000    -1.514000000
H     1.890000000     6.417000000    -1.063000000
H     0.975000000     7.308000000    -1.875000000
O    -0.873000000     4.676000000    -0.074000000
H     0.033000000     4.963000000    -0.188000000
H    -0.884000000     3.779000000    -0.407000000
O     1.572000000     7.473000000     6.178000000
H     0.892000000     8.133000000     6.048000000
H     1.239000000     6.921000000     6.886000000
O    -1.586000000     4.167000000     6.085000000
H    -1.476000000     3.965000000     5.156000000
H    -2.535000000     4.204000000     6.211000000
O     2.382000000     7.592000000     2.881000000
H     1.495000000     7.282000000     3.066000000
H     2.799000000     6.864000000     2.420000000
O     1.195000000     3.734000000     6.283000000
H     1.247000000     3.599000000     5.337000000
H     0.257000000     3.756000000     6.471000000
O     3.788000000     3.395000000     7.358000000
H     2.856000000     3.426000000     7.142000000
H     3.813000000     3.088000000     8.264000000
O     3.022000000     4.947000000     1.966000000
H     2.378000000     4.511000000     2.524000000
H     3.860000000     4.560000000     2.219000000
O     3.859000000     4.551000000     4.813000000
H     3.043000000     4.458000000     4.321000000
H     3.809000000     3.875000000     5.488000000
O     4.319000000     7.321000000     5.970000000
H     3.362000000     7.305000000     5.999000000
H     4.550000000     6.648000000     5.329000000
O    -2.408000000     4.744000000     2.183000000
H    -2.197000000     4.403000000     1.314000000
H    -1.829000000     4.266000000     2.776000000
O    -1.182000000     7.427000000    -1.149000000
H    -1.470000000     6.557000000    -0.874000000
H    -0.902000000     7.855000000    -0.340000000
O    -0.732000000     8.277000000     1.667000000
H    -0.689000000     7.554000000     2.293000000
H    -1.573000000     8.698000000     1.845000000
O     0.278000000     6.642000000     4.026000000
H     0.209000000     5.691000000     3.938000000
H     0.615000000     6.776000000     4.912000000
O    -0.086000000     5.942000000     7.894000000
H    -0.745000000     5.497000000     7.361000000
H    -0.558000000     6.215000000     8.680000000
O    -4.200000000     4.657000000     6.101000000
H    -4.230000000     4.397000000     7.022000000
H    -4.131000000     5.611000000     6.125000000
