215
-1455.61444
C     3.625000000     0.062000000    -3.064000000
H     2.913000000    -0.590000000    -3.564000000
C     4.231000000    -0.148000000    -1.859000000
C     4.999000000     0.860000000    -1.319000000
H     5.437000000     0.841000000    -0.324000000
C     3.848000000    -1.328000000    -0.930000000
O     3.677000000    -2.504000000    -1.777000000
H     2.833000000    -1.141000000    -0.549000000
O     4.713000000    -1.533000000     0.202000000
C     4.039000000    -1.721000000     1.366000000
C     3.645000000    -0.599000000     2.119000000
H     3.952000000     0.400000000     1.821000000
C     2.916000000    -0.786000000     3.305000000
O     2.712000000     0.331000000     4.021000000
C     2.347000000    -1.981000000     3.630000000
C     1.474000000    -2.205000000     4.819000000
H     1.405000000    -3.259000000     5.098000000
C     0.079000000    -1.726000000     4.609000000
C    -0.866000000    -2.625000000     4.050000000
H    -0.676000000    -3.693000000     3.988000000
H     1.948000000    -1.680000000     5.651000000
C     2.595000000    -3.019000000     2.785000000
H     2.188000000    -3.991000000     3.049000000
C     3.404000000    -2.914000000     1.653000000
C     3.520000000    -4.116000000     0.765000000
H     3.411000000    -5.070000000     1.287000000
H     4.494000000    -4.099000000     0.272000000
C     2.462000000    -4.078000000    -0.329000000
C     1.261000000    -4.790000000    -0.134000000
H     1.157000000    -5.385000000     0.770000000
C     2.604000000    -3.289000000    -1.501000000
C     1.656000000    -3.367000000    -2.500000000
H     1.873000000    -2.824000000    -3.416000000
C     0.468000000    -3.993000000    -2.266000000
O    -0.471000000    -3.863000000    -3.245000000
C    -1.545000000    -2.960000000    -2.998000000
C    -1.783000000    -2.215000000    -4.372000000
C    -2.980000000    -1.482000000    -4.611000000
H    -3.764000000    -1.426000000    -3.859000000
C    -0.742000000    -2.011000000    -5.212000000
H     0.212000000    -2.478000000    -4.982000000
O    -2.701000000    -3.608000000    -2.444000000
H    -1.203000000    -2.086000000    -2.424000000
C     0.226000000    -4.777000000    -1.118000000
C    -1.105000000    -5.378000000    -0.882000000
H    -0.987000000    -6.173000000    -0.142000000
H    -1.518000000    -5.836000000    -1.783000000
C    -2.142000000    -4.371000000    -0.343000000
C    -2.243000000    -4.260000000     1.047000000
H    -1.687000000    -4.967000000     1.658000000
C    -2.851000000    -3.504000000    -1.125000000
C    -3.694000000    -2.593000000    -0.603000000
H    -4.229000000    -1.936000000    -1.284000000
C    -3.814000000    -2.496000000     0.783000000
O    -4.513000000    -1.405000000     1.237000000
C    -3.784000000    -0.292000000     1.852000000
C    -4.256000000     1.081000000     1.337000000
C    -4.768000000     1.256000000     0.058000000
H    -4.987000000     0.395000000    -0.569000000
C    -4.076000000     2.210000000     2.150000000
H    -3.559000000     2.094000000     3.099000000
O    -3.739000000    -0.440000000     3.287000000
H    -2.733000000    -0.406000000     1.547000000
C    -3.059000000    -3.328000000     1.647000000
C    -3.176000000    -3.296000000     3.170000000
H    -2.849000000    -4.231000000     3.629000000
H    -4.194000000    -3.007000000     3.441000000
C    -2.203000000    -2.245000000     3.758000000
C    -2.611000000    -0.921000000     3.874000000
C    -1.690000000    -0.020000000     4.465000000
H    -1.826000000     1.042000000     4.282000000
C    -0.352000000    -0.405000000     4.722000000
O     0.589000000     0.567000000     5.017000000
C     1.391000000     1.008000000     3.874000000
H     0.858000000     0.713000000     2.958000000
C     1.507000000     2.502000000     3.767000000
C     2.585000000     3.063000000     3.079000000
H     3.227000000     2.349000000     2.569000000
C     0.529000000     3.338000000     4.420000000
H    -0.287000000     2.806000000     4.902000000
C     0.699000000     4.776000000     4.398000000
O    -0.303000000     5.548000000     4.984000000
C     1.826000000     5.277000000     3.755000000
H     1.908000000     6.361000000     3.734000000
C     2.766000000     4.431000000     3.105000000
O     3.815000000     4.975000000     2.440000000
C     4.934000000     4.378000000     1.938000000
C     4.912000000     4.126000000     0.520000000
H     4.215000000     4.531000000    -0.209000000
C     5.832000000     3.712000000     2.776000000
H     5.739000000     3.781000000     3.857000000
C     6.811000000     2.978000000     2.245000000
H     7.619000000     2.511000000     2.802000000
C     6.996000000     2.810000000     0.855000000
H     7.735000000     2.152000000     0.405000000
C     6.006000000     3.309000000     0.028000000
O     6.068000000     2.994000000    -1.289000000
C     5.218000000     2.047000000    -1.943000000
C     4.756000000     2.221000000    -3.235000000
H     5.029000000     3.141000000    -3.745000000
C     3.948000000     1.249000000    -3.761000000
O     3.421000000     1.427000000    -4.951000000
C     3.057000000     0.455000000    -5.824000000
C     1.700000000     0.283000000    -6.062000000
H     0.928000000     0.873000000    -5.574000000
C     4.080000000    -0.388000000    -6.420000000
H     5.123000000    -0.135000000    -6.248000000
C     3.742000000    -1.365000000    -7.378000000
H     4.532000000    -1.903000000    -7.896000000
C     2.374000000    -1.492000000    -7.624000000
H     2.057000000    -2.244000000    -8.342000000
C     1.418000000    -0.765000000    -6.948000000
O     0.117000000    -0.997000000    -7.256000000
C    -0.876000000    -1.188000000    -6.333000000
C    -2.075000000    -0.573000000    -6.611000000
H    -2.087000000     0.145000000    -7.427000000
C    -3.138000000    -0.653000000    -5.742000000
O    -4.247000000     0.234000000    -5.810000000
C    -5.069000000     0.438000000    -4.730000000
C    -4.713000000     1.435000000    -3.801000000
H    -3.852000000     2.051000000    -4.048000000
C    -6.153000000    -0.454000000    -4.528000000
H    -6.385000000    -1.276000000    -5.200000000
C    -6.926000000    -0.255000000    -3.355000000
H    -7.749000000    -0.960000000    -3.262000000
C    -6.629000000     0.773000000    -2.470000000
H    -7.288000000     0.932000000    -1.621000000
C    -5.563000000     1.633000000    -2.705000000
O    -5.210000000     2.668000000    -1.822000000
C    -5.020000000     2.508000000    -0.476000000
C    -4.926000000     3.616000000     0.387000000
H    -5.050000000     4.616000000    -0.020000000
C    -4.430000000     3.499000000     1.677000000
O    -4.417000000     4.614000000     2.506000000
C    -3.646000000     4.631000000     3.673000000
C    -4.283000000     4.241000000     4.840000000
H    -5.247000000     3.765000000     4.677000000
C    -3.615000000     4.163000000     6.091000000
H    -3.998000000     3.557000000     6.909000000
C    -2.322000000     4.660000000     6.134000000
H    -1.783000000     4.562000000     7.073000000
C    -1.659000000     5.110000000     4.948000000
C    -2.295000000     5.038000000     3.711000000
H    -1.825000000     5.358000000     2.785000000
C    -0.143000000     1.011000000    -2.195000000
H     0.213000000     1.013000000    -3.222000000
C     0.285000000     0.045000000    -1.309000000
H     0.869000000    -0.816000000    -1.626000000
C    -0.038000000     0.152000000     0.039000000
H     0.421000000    -0.506000000     0.678000000
C    -0.836000000     1.179000000     0.490000000
H    -1.089000000     1.261000000     1.544000000
C    -1.273000000     2.120000000    -0.432000000
H    -1.946000000     2.908000000    -0.104000000
C    -0.916000000     2.072000000    -1.763000000
C    -1.225000000     3.158000000    -2.697000000
O    -1.660000000     4.215000000    -2.271000000
O    -1.001000000     3.010000000    -3.872000000
O    -1.722000000     5.892000000    -4.626000000
H    -1.251000000     5.094000000    -4.383000000
H    -2.606000000     5.763000000    -4.282000000
O     0.793000000     5.466000000    -7.295000000
H     0.546000000     4.858000000    -7.991000000
H     1.471000000     5.004000000    -6.802000000
O    -6.762000000     3.096000000    -5.348000000
H    -7.264000000     2.349000000    -5.019000000
H    -7.365000000     3.547000000    -5.940000000
O     0.232000000     8.080000000    -4.866000000
H     0.563000000     8.020000000    -5.762000000
H    -0.496000000     7.458000000    -4.837000000
O    -1.485000000     8.183000000    -1.939000000
H    -0.938000000     7.690000000    -2.551000000
H    -2.104000000     7.538000000    -1.598000000
O    -4.243000000     8.429000000     0.508000000
H    -3.510000000     7.821000000     0.408000000
H    -4.647000000     8.461000000    -0.359000000
O    -2.606000000     5.959000000    -0.526000000
H    -2.293000000     5.306000000    -1.151000000
H    -1.867000000     6.097000000     0.067000000
O    -1.801000000     3.017000000    -6.408000000
H    -1.630000000     2.835000000    -5.484000000
H    -2.754000000     3.094000000    -6.465000000
O    -6.731000000     4.762000000    -2.566000000
H    -6.755000000     4.449000000    -1.662000000
H    -7.063000000     4.029000000    -3.083000000
O     0.463000000     5.722000000    -1.452000000
H    -0.128000000     5.072000000    -1.830000000
H     1.274000000     5.629000000    -1.953000000
O     1.589000000     3.465000000    -5.101000000
H     2.107000000     2.853000000    -4.579000000
H     0.696000000     3.367000000    -4.771000000
O     2.199000000     5.706000000    -3.752000000
H     2.214000000     6.368000000    -4.443000000
H     2.209000000     4.871000000    -4.219000000
O    -0.352000000     1.937000000    -8.630000000
H    -0.839000000     2.419000000    -7.961000000
H    -1.028000000     1.501000000    -9.150000000
O    -4.412000000     3.287000000    -6.868000000
H    -4.869000000     3.551000000    -6.069000000
H    -5.067000000     2.797000000    -7.366000000
O     3.912000000     7.739000000    -2.733000000
H     3.184000000     7.138000000    -2.576000000
H     4.422000000     7.322000000    -3.427000000
O    -0.614000000     7.061000000     1.244000000
H    -0.168000000     7.741000000     1.750000000
H    -0.016000000     6.871000000     0.520000000
O    -5.591000000     6.015000000    -5.827000000
H    -5.152000000     5.773000000    -5.012000000
H    -5.225000000     5.421000000    -6.482000000
O    -4.054000000     4.963000000    -3.649000000
H    -4.892000000     4.731000000    -3.248000000
H    -3.403000000     4.751000000    -2.980000000
O    -1.977000000     5.234000000    -8.107000000
H    -1.785000000     4.348000000    -7.802000000
H    -1.951000000     5.772000000    -7.315000000
