215
-1463.02144
C     4.307000000    -0.905000000     3.442000000
H     4.800000000    -0.971000000     2.475000000
C     3.200000000    -1.707000000     3.722000000
C     2.622000000    -1.629000000     4.966000000
H     1.742000000    -2.202000000     5.249000000
C     2.611000000    -2.554000000     2.648000000
O     3.539000000    -3.281000000     1.805000000
H     2.012000000    -1.907000000     1.991000000
O     1.596000000    -3.474000000     3.118000000
C     0.488000000    -3.749000000     2.360000000
C    -0.691000000    -3.187000000     2.869000000
H    -0.611000000    -2.532000000     3.733000000
C    -1.880000000    -3.542000000     2.296000000
O    -2.995000000    -2.896000000     2.715000000
C    -1.901000000    -4.330000000     1.129000000
C    -3.132000000    -4.668000000     0.312000000
H    -2.925000000    -5.595000000    -0.226000000
C    -3.506000000    -3.513000000    -0.590000000
C    -3.030000000    -3.616000000    -1.910000000
H    -2.618000000    -4.568000000    -2.235000000
H    -3.956000000    -4.917000000     0.984000000
C    -0.700000000    -4.863000000     0.673000000
H    -0.808000000    -5.522000000    -0.185000000
C     0.503000000    -4.638000000     1.254000000
C     1.805000000    -5.225000000     0.752000000
H     1.535000000    -6.143000000     0.224000000
H     2.502000000    -5.579000000     1.514000000
C     2.494000000    -4.228000000    -0.104000000
C     2.265000000    -4.190000000    -1.464000000
H     1.626000000    -4.983000000    -1.844000000
C     3.295000000    -3.239000000     0.461000000
C     3.979000000    -2.378000000    -0.332000000
H     4.513000000    -1.555000000     0.138000000
C     3.719000000    -2.286000000    -1.699000000
O     4.099000000    -1.090000000    -2.310000000
C     3.088000000    -0.164000000    -2.816000000
C     3.458000000     1.253000000    -2.491000000
C     3.208000000     2.219000000    -3.408000000
H     2.826000000     2.122000000    -4.421000000
C     4.157000000     1.484000000    -1.282000000
H     4.362000000     0.728000000    -0.528000000
O     2.695000000    -0.396000000    -4.139000000
H     2.229000000    -0.368000000    -2.160000000
C     2.822000000    -3.188000000    -2.273000000
C     2.419000000    -3.199000000    -3.773000000
H     2.197000000    -4.184000000    -4.188000000
H     3.214000000    -2.941000000    -4.476000000
C     1.140000000    -2.358000000    -3.967000000
C    -0.134000000    -2.886000000    -3.814000000
H    -0.227000000    -3.921000000    -3.495000000
C     1.421000000    -1.022000000    -4.308000000
C     0.306000000    -0.271000000    -4.579000000
H     0.482000000     0.777000000    -4.809000000
C    -0.967000000    -0.778000000    -4.509000000
O    -2.038000000     0.161000000    -4.617000000
C    -2.699000000     0.485000000    -3.370000000
C    -2.885000000     2.006000000    -3.258000000
C    -2.316000000     2.837000000    -4.162000000
H    -1.814000000     2.465000000    -5.052000000
C    -3.646000000     2.613000000    -2.233000000
H    -4.092000000     2.067000000    -1.406000000
O    -3.901000000    -0.255000000    -3.182000000
H    -1.951000000     0.172000000    -2.627000000
C    -1.243000000    -2.113000000    -4.104000000
C    -2.673000000    -2.698000000    -4.174000000
H    -2.511000000    -3.675000000    -4.633000000
H    -3.350000000    -2.160000000    -4.841000000
C    -3.218000000    -2.603000000    -2.809000000
C    -3.811000000    -1.398000000    -2.347000000
C    -4.373000000    -1.352000000    -1.065000000
H    -4.798000000    -0.440000000    -0.654000000
C    -4.150000000    -2.344000000    -0.174000000
O    -4.449000000    -2.037000000     1.123000000
C    -3.355000000    -1.712000000     1.940000000
H    -2.528000000    -1.438000000     1.268000000
C    -3.611000000    -0.496000000     2.863000000
C    -2.728000000    -0.156000000     3.899000000
H    -1.841000000    -0.774000000     4.010000000
C    -4.518000000     0.508000000     2.562000000
H    -5.311000000     0.287000000     1.851000000
C    -4.670000000     1.680000000     3.289000000
O    -5.721000000     2.574000000     3.096000000
C    -3.803000000     1.893000000     4.329000000
H    -3.859000000     2.795000000     4.934000000
C    -2.693000000     1.081000000     4.432000000
O    -1.675000000     1.460000000     5.238000000
C    -1.081000000     0.598000000     6.122000000
C     0.303000000     0.452000000     6.039000000
H     0.886000000     0.953000000     5.271000000
C    -1.787000000     0.107000000     7.196000000
H    -2.853000000     0.316000000     7.164000000
C    -1.188000000    -0.650000000     8.205000000
H    -1.784000000    -1.073000000     9.010000000
C     0.189000000    -0.933000000     8.035000000
H     0.669000000    -1.624000000     8.724000000
C     0.960000000    -0.291000000     7.047000000
O     2.376000000    -0.451000000     7.096000000
C     3.103000000    -0.675000000     5.902000000
C     4.241000000     0.049000000     5.715000000
H     4.672000000     0.729000000     6.445000000
C     4.865000000    -0.091000000     4.457000000
O     6.052000000     0.620000000     4.203000000
C     6.356000000     0.976000000     2.870000000
C     5.491000000     1.941000000     2.255000000
H     4.613000000     2.369000000     2.732000000
C     7.542000000     0.513000000     2.294000000
H     8.125000000    -0.206000000     2.864000000
C     7.862000000     0.966000000     1.080000000
H     8.827000000     0.714000000     0.648000000
C     7.095000000     1.870000000     0.420000000
H     7.312000000     2.281000000    -0.563000000
C     5.852000000     2.354000000     0.970000000
O     4.935000000     3.187000000     0.259000000
C     4.466000000     2.811000000    -0.990000000
C     4.034000000     3.814000000    -1.839000000
H     4.067000000     4.865000000    -1.564000000
C     3.501000000     3.522000000    -3.044000000
O     2.921000000     4.613000000    -3.711000000
C     1.963000000     4.618000000    -4.718000000
C     0.610000000     4.910000000    -4.351000000
H     0.339000000     5.173000000    -3.332000000
C     2.291000000     4.387000000    -6.048000000
H     3.330000000     4.359000000    -6.366000000
C     1.289000000     4.447000000    -7.006000000
H     1.534000000     4.363000000    -8.062000000
C    -0.086000000     4.553000000    -6.691000000
H    -0.949000000     4.506000000    -7.351000000
C    -0.403000000     4.759000000    -5.354000000
O    -1.742000000     4.974000000    -5.008000000
C    -2.407000000     4.231000000    -4.046000000
C    -3.299000000     4.760000000    -3.146000000
H    -3.390000000     5.838000000    -3.257000000
C    -3.826000000     3.987000000    -2.127000000
O    -4.793000000     4.564000000    -1.182000000
C    -5.575000000     3.850000000    -0.291000000
C    -6.769000000     3.388000000    -0.801000000
H    -7.000000000     3.540000000    -1.852000000
C    -7.592000000     2.645000000     0.001000000
H    -8.498000000     2.150000000    -0.340000000
C    -7.272000000     2.357000000     1.293000000
H    -7.966000000     1.812000000     1.928000000
C    -6.060000000     2.919000000     1.813000000
C    -5.131000000     3.591000000     0.976000000
H    -4.196000000     4.009000000     1.339000000
C    -1.123000000     2.102000000     1.098000000
H    -1.918000000     2.804000000     1.335000000
C    -1.256000000     1.198000000     0.056000000
H    -2.142000000     1.123000000    -0.569000000
C    -0.229000000     0.214000000    -0.033000000
H    -0.342000000    -0.442000000    -0.909000000
C     0.928000000     0.287000000     0.754000000
H     1.646000000    -0.487000000     0.496000000
C     1.064000000     1.287000000     1.704000000
H     1.991000000     1.469000000     2.242000000
C     0.057000000     2.188000000     1.934000000
C     0.233000000     3.225000000     2.951000000
O     1.246000000     3.260000000     3.651000000
O    -0.538000000     4.137000000     2.879000000
O     2.685000000     5.110000000     8.605000000
H     3.404000000     5.601000000     8.207000000
H     2.493000000     4.414000000     7.977000000
O    -5.239000000     6.782000000     2.400000000
H    -4.604000000     7.294000000     1.898000000
H    -4.716000000     6.345000000     3.072000000
O    -0.795000000     5.396000000    -0.087000000
H    -0.184000000     4.792000000    -0.509000000
H    -0.911000000     5.042000000     0.795000000
O     5.654000000     5.479000000     2.887000000
H     5.720000000     6.104000000     2.165000000
H     6.296000000     4.801000000     2.676000000
O     0.735000000     3.507000000    -1.165000000
H     1.527000000     3.856000000    -0.757000000
H     0.676000000     2.607000000    -0.843000000
O    -0.752000000     8.353000000     2.725000000
H     0.045000000     7.823000000     2.711000000
H    -0.812000000     8.670000000     3.627000000
O     0.423000000     7.867000000    -1.271000000
H    -0.376000000     7.564000000    -0.840000000
H     1.133000000     7.475000000    -0.762000000
O     1.850000000     6.647000000     5.439000000
H     2.757000000     6.937000000     5.347000000
H     1.915000000     5.781000000     5.841000000
O     2.424000000     3.155000000     6.583000000
H     2.895000000     3.509000000     5.828000000
H     1.503000000     3.173000000     6.321000000
O    -2.987000000     7.288000000    -0.920000000
H    -2.414000000     6.521000000    -0.938000000
H    -2.927000000     7.610000000    -0.020000000
O    -0.944000000     4.103000000     8.710000000
H    -0.883000000     4.986000000     9.075000000
H    -0.429000000     4.140000000     7.905000000
O     2.490000000     4.554000000     0.810000000
H     3.141000000     3.874000000     0.983000000
H     2.050000000     4.685000000     1.650000000
O     1.088000000     6.288000000     3.012000000
H     0.509000000     5.535000000     3.134000000
H     1.430000000     6.470000000     3.887000000
O     2.353000000     7.225000000     0.735000000
H     2.414000000     6.283000000     0.580000000
H     1.928000000     7.301000000     1.590000000
O    -3.035000000     8.516000000     1.368000000
H    -2.119000000     8.312000000     1.556000000
H    -3.183000000     9.363000000     1.789000000
O     0.009000000     4.251000000     5.891000000
H    -0.922000000     4.455000000     5.800000000
H     0.282000000     3.986000000     5.012000000
O     3.607000000     4.541000000     4.304000000
H     2.869000000     4.190000000     3.807000000
H     4.172000000     4.942000000     3.644000000
O    -0.436000000     8.161000000     5.639000000
H     0.079000000     8.965000000     5.574000000
H     0.211000000     7.476000000     5.807000000
O    -2.872000000     5.552000000     2.781000000
H    -2.038000000     5.099000000     2.659000000
H    -2.643000000     6.351000000     3.255000000
