215
-1464.24511
C     4.181000000    -1.009000000     3.176000000
H     4.521000000    -1.060000000     2.144000000
C     3.174000000    -1.919000000     3.541000000
C     2.564000000    -1.893000000     4.817000000
H     1.875000000    -2.650000000     5.182000000
C     2.552000000    -2.795000000     2.449000000
O     3.564000000    -3.331000000     1.584000000
H     1.884000000    -2.171000000     1.837000000
O     1.672000000    -3.873000000     2.941000000
C     0.495000000    -4.148000000     2.304000000
C    -0.529000000    -3.510000000     2.879000000
H    -0.463000000    -2.967000000     3.819000000
C    -1.813000000    -3.565000000     2.242000000
O    -2.889000000    -2.829000000     2.762000000
C    -1.925000000    -4.279000000     1.040000000
C    -3.251000000    -4.419000000     0.330000000
H    -3.204000000    -5.342000000    -0.252000000
C    -3.576000000    -3.215000000    -0.622000000
C    -3.216000000    -3.337000000    -1.972000000
H    -2.944000000    -4.275000000    -2.449000000
H    -4.097000000    -4.545000000     1.009000000
C    -0.829000000    -4.910000000     0.501000000
H    -0.869000000    -5.478000000    -0.425000000
C     0.410000000    -4.843000000     1.114000000
C     1.703000000    -5.417000000     0.496000000
H     1.459000000    -6.326000000    -0.057000000
H     2.443000000    -5.844000000     1.176000000
C     2.374000000    -4.384000000    -0.336000000
C     2.184000000    -4.342000000    -1.753000000
H     1.528000000    -5.054000000    -2.246000000
C     3.225000000    -3.433000000     0.236000000
C     3.830000000    -2.393000000    -0.551000000
H     4.392000000    -1.647000000     0.005000000
C     3.448000000    -2.319000000    -1.904000000
O     3.915000000    -1.231000000    -2.534000000
C     2.967000000    -0.173000000    -2.892000000
C     3.510000000     1.188000000    -2.627000000
C     3.181000000     2.242000000    -3.584000000
H     2.608000000     1.967000000    -4.466000000
C     4.339000000     1.501000000    -1.531000000
H     4.575000000     0.674000000    -0.866000000
O     2.544000000    -0.471000000    -4.251000000
H     2.087000000    -0.342000000    -2.255000000
C     2.711000000    -3.304000000    -2.518000000
C     2.286000000    -3.246000000    -3.960000000
H     1.987000000    -4.243000000    -4.291000000
H     3.121000000    -2.874000000    -4.556000000
C     1.101000000    -2.319000000    -4.222000000
C    -0.263000000    -2.730000000    -4.228000000
H    -0.437000000    -3.801000000    -4.168000000
C     1.333000000    -0.979000000    -4.452000000
C     0.336000000    -0.067000000    -4.618000000
H     0.594000000     0.988000000    -4.661000000
C    -1.022000000    -0.501000000    -4.490000000
O    -2.013000000     0.448000000    -4.476000000
C    -2.501000000     0.832000000    -3.122000000
C    -2.814000000     2.295000000    -3.098000000
C    -1.894000000     3.256000000    -3.653000000
H    -0.924000000     3.061000000    -4.103000000
C    -3.995000000     2.744000000    -2.489000000
H    -4.781000000     2.111000000    -2.087000000
O    -3.701000000     0.144000000    -2.968000000
H    -1.790000000     0.456000000    -2.371000000
C    -1.314000000    -1.848000000    -4.380000000
C    -2.767000000    -2.321000000    -4.204000000
H    -2.870000000    -3.369000000    -4.492000000
H    -3.473000000    -1.797000000    -4.852000000
C    -3.261000000    -2.194000000    -2.735000000
C    -3.761000000    -0.981000000    -2.270000000
C    -4.121000000    -0.916000000    -0.930000000
H    -4.446000000     0.040000000    -0.528000000
C    -4.115000000    -2.053000000    -0.076000000
O    -4.399000000    -1.907000000     1.299000000
C    -3.238000000    -1.628000000     2.114000000
H    -2.349000000    -1.388000000     1.512000000
C    -3.495000000    -0.454000000     3.057000000
C    -2.707000000    -0.335000000     4.200000000
H    -2.035000000    -1.156000000     4.440000000
C    -4.257000000     0.662000000     2.640000000
H    -4.856000000     0.589000000     1.736000000
C    -4.268000000     1.794000000     3.424000000
O    -4.981000000     2.916000000     3.039000000
C    -3.476000000     1.935000000     4.559000000
H    -3.462000000     2.785000000     5.235000000
C    -2.708000000     0.873000000     4.921000000
O    -2.031000000     1.037000000     6.070000000
C    -1.225000000     0.106000000     6.705000000
C     0.152000000     0.052000000     6.405000000
H     0.606000000     0.636000000     5.609000000
C    -1.757000000    -0.749000000     7.640000000
H    -2.837000000    -0.705000000     7.756000000
C    -0.955000000    -1.658000000     8.330000000
H    -1.382000000    -2.327000000     9.073000000
C     0.416000000    -1.604000000     8.088000000
H     0.957000000    -2.369000000     8.639000000
C     0.981000000    -0.772000000     7.109000000
O     2.372000000    -0.706000000     6.923000000
C     2.949000000    -0.844000000     5.713000000
C     3.994000000     0.017000000     5.374000000
H     4.307000000     0.826000000     6.030000000
C     4.726000000    -0.114000000     4.178000000
O     5.791000000     0.681000000     3.969000000
C     6.199000000     0.855000000     2.676000000
C     5.573000000     1.802000000     1.898000000
H     4.621000000     2.251000000     2.169000000
C     7.352000000     0.283000000     2.237000000
H     7.858000000    -0.398000000     2.916000000
C     7.845000000     0.543000000     0.970000000
H     8.715000000     0.075000000     0.514000000
C     7.204000000     1.460000000     0.193000000
H     7.487000000     1.610000000    -0.846000000
C     6.106000000     2.151000000     0.663000000
O     5.424000000     3.058000000    -0.082000000
C     4.730000000     2.807000000    -1.236000000
C     4.421000000     3.791000000    -2.206000000
H     4.654000000     4.852000000    -2.163000000
C     3.714000000     3.547000000    -3.381000000
O     3.487000000     4.612000000    -4.283000000
C     2.232000000     4.940000000    -4.905000000
C     1.104000000     5.146000000    -4.092000000
H     1.156000000     5.109000000    -3.007000000
C     2.078000000     4.964000000    -6.290000000
H     3.007000000     4.906000000    -6.853000000
C     0.811000000     5.121000000    -6.842000000
H     0.692000000     5.307000000    -7.906000000
C    -0.278000000     5.418000000    -6.053000000
H    -1.233000000     5.568000000    -6.548000000
C    -0.161000000     5.408000000    -4.706000000
O    -1.294000000     5.580000000    -3.979000000
C    -2.161000000     4.616000000    -3.478000000
C    -3.297000000     5.003000000    -2.723000000
H    -3.531000000     6.050000000    -2.548000000
C    -4.177000000     4.037000000    -2.226000000
O    -5.330000000     4.436000000    -1.478000000
C    -5.777000000     3.690000000    -0.453000000
C    -7.134000000     3.303000000    -0.494000000
H    -7.697000000     3.529000000    -1.396000000
C    -7.746000000     2.648000000     0.619000000
H    -8.776000000     2.301000000     0.609000000
C    -7.072000000     2.418000000     1.799000000
H    -7.446000000     1.913000000     2.686000000
C    -5.735000000     2.981000000     1.862000000
C    -5.113000000     3.491000000     0.732000000
H    -4.184000000     4.031000000     0.896000000
C    -0.997000000     2.281000000     2.048000000
H    -1.772000000     2.906000000     2.484000000
C    -1.353000000     1.403000000     1.043000000
H    -2.382000000     1.490000000     0.702000000
C    -0.420000000     0.564000000     0.445000000
H    -0.668000000    -0.072000000    -0.343000000
C     0.887000000     0.586000000     0.904000000
H     1.615000000     0.056000000     0.295000000
C     1.206000000     1.384000000     2.013000000
H     2.250000000     1.502000000     2.292000000
C     0.284000000     2.231000000     2.646000000
C     0.647000000     3.352000000     3.623000000
O     1.857000000     3.546000000     3.705000000
O    -0.198000000     4.114000000     4.080000000
O     4.819000000     7.910000000     2.654000000
H     5.428000000     8.644000000     2.733000000
H     4.703000000     7.598000000     3.551000000
O    -5.256000000     5.342000000     4.239000000
H    -4.398000000     5.628000000     3.928000000
H    -5.289000000     4.409000000     4.027000000
O    -0.520000000     6.114000000    -1.320000000
H    -0.852000000     6.007000000    -2.211000000
H     0.016000000     5.336000000    -1.168000000
O     5.365000000     5.213000000     2.278000000
H     5.087000000     6.114000000     2.111000000
H     6.321000000     5.256000000     2.291000000
O     5.491000000     6.443000000     5.192000000
H     5.392000000     5.502000000     5.048000000
H     6.437000000     6.578000000     5.247000000
O     0.910000000     3.573000000    -0.371000000
H     1.707000000     3.670000000     0.151000000
H     0.427000000     2.868000000     0.060000000
O    -0.859000000     7.547000000     4.963000000
H     0.090000000     7.424000000     4.963000000
H    -1.065000000     7.830000000     5.854000000
O     3.491000000     7.657000000     6.183000000
H     2.744000000     7.058000000     6.200000000
H     4.155000000     7.195000000     5.671000000
O     2.780000000     4.480000000     6.953000000
H     3.270000000     4.638000000     6.146000000
H     1.919000000     4.866000000     6.790000000
O     5.819000000     2.776000000     6.710000000
H     6.449000000     2.348000000     6.130000000
H     5.189000000     3.186000000     6.117000000
O     2.836000000     4.134000000     1.247000000
H     3.742000000     4.442000000     1.233000000
H     2.672000000     3.912000000     2.163000000
O     1.820000000     6.200000000     3.917000000
H     0.868000000     6.198000000     3.816000000
H     2.073000000     5.283000000     3.817000000
O     1.841000000     6.775000000     0.438000000
H     0.992000000     6.691000000     0.002000000
H     2.149000000     5.874000000     0.537000000
O    -4.369000000     7.062000000     1.663000000
H    -3.756000000     6.509000000     2.148000000
H    -4.356000000     7.899000000     2.128000000
O     0.210000000     4.767000000     6.614000000
H    -0.179000000     3.971000000     6.976000000
H    -0.038000000     4.755000000     5.689000000
O     4.482000000     3.881000000     4.512000000
H     3.569000000     3.667000000     4.318000000
H     4.850000000     4.149000000     3.670000000
O    -0.165000000     6.751000000     8.505000000
H     0.685000000     7.120000000     8.745000000
H     0.048000000     5.990000000     7.966000000
O    -2.378000000     5.098000000     8.565000000
H    -2.062000000     4.780000000     9.411000000
H    -1.709000000     5.719000000     8.278000000
O    -2.481000000     5.658000000     3.581000000
H    -1.845000000     5.013000000     3.890000000
H    -2.234000000     6.470000000     4.024000000
