215
-1419.91779
C     4.494000000     0.079000000    -3.176000000
H     4.337000000    -0.815000000    -3.774000000
C     4.349000000     0.006000000    -1.814000000
C     4.389000000     1.264000000    -1.179000000
H     4.150000000     1.254000000    -0.119000000
C     3.792000000    -1.135000000    -1.017000000
O     3.922000000    -2.409000000    -1.746000000
H     2.732000000    -0.883000000    -0.866000000
O     4.544000000    -1.118000000     0.226000000
C     3.778000000    -1.434000000     1.405000000
C     3.689000000    -0.437000000     2.384000000
H     4.139000000     0.530000000     2.172000000
C     3.015000000    -0.731000000     3.558000000
O     2.815000000     0.438000000     4.289000000
C     2.488000000    -1.946000000     3.797000000
C     1.557000000    -2.220000000     4.990000000
H     1.680000000    -3.258000000     5.305000000
C     0.127000000    -1.865000000     4.569000000
C    -0.669000000    -2.919000000     4.085000000
H    -0.300000000    -3.930000000     3.932000000
H     1.772000000    -1.624000000     5.880000000
C     2.599000000    -2.887000000     2.834000000
H     2.158000000    -3.879000000     2.882000000
C     3.405000000    -2.764000000     1.691000000
C     3.627000000    -3.884000000     0.731000000
H     3.549000000    -4.893000000     1.139000000
H     4.643000000    -3.797000000     0.339000000
C     2.659000000    -3.905000000    -0.466000000
C     1.547000000    -4.773000000    -0.361000000
H     1.275000000    -5.337000000     0.528000000
C     2.850000000    -3.257000000    -1.625000000
C     1.882000000    -3.104000000    -2.607000000
H     2.034000000    -2.363000000    -3.387000000
C     0.678000000    -3.833000000    -2.453000000
O    -0.256000000    -3.778000000    -3.434000000
C    -1.385000000    -2.933000000    -3.254000000
C    -1.627000000    -2.017000000    -4.397000000
C    -2.933000000    -1.835000000    -4.813000000
H    -3.827000000    -2.274000000    -4.377000000
C    -0.599000000    -1.250000000    -4.940000000
H     0.450000000    -1.385000000    -4.688000000
O    -2.542000000    -3.645000000    -2.740000000
H    -1.116000000    -2.364000000    -2.352000000
C     0.521000000    -4.704000000    -1.361000000
C    -0.782000000    -5.495000000    -1.303000000
H    -0.439000000    -6.364000000    -0.736000000
H    -1.072000000    -5.910000000    -2.270000000
C    -1.870000000    -4.677000000    -0.623000000
C    -1.967000000    -4.723000000     0.712000000
H    -1.454000000    -5.514000000     1.252000000
C    -2.686000000    -3.816000000    -1.375000000
C    -3.498000000    -2.977000000    -0.667000000
H    -4.173000000    -2.347000000    -1.242000000
C    -3.542000000    -2.911000000     0.708000000
O    -4.285000000    -1.832000000     1.200000000
C    -3.567000000    -0.717000000     1.776000000
C    -4.143000000     0.588000000     1.295000000
C    -4.354000000     0.797000000    -0.048000000
H    -4.046000000    -0.047000000    -0.660000000
C    -4.337000000     1.680000000     2.145000000
H    -4.086000000     1.664000000     3.202000000
O    -3.569000000    -0.889000000     3.177000000
H    -2.506000000    -0.745000000     1.487000000
C    -2.708000000    -3.800000000     1.419000000
C    -2.742000000    -3.788000000     2.968000000
H    -2.257000000    -4.705000000     3.313000000
H    -3.763000000    -3.777000000     3.355000000
C    -1.943000000    -2.611000000     3.620000000
C    -2.384000000    -1.253000000     3.680000000
C    -1.642000000    -0.263000000     4.253000000
H    -2.076000000     0.727000000     4.361000000
C    -0.331000000    -0.538000000     4.650000000
O     0.433000000     0.516000000     5.051000000
C     1.455000000     1.086000000     4.151000000
H     1.184000000     0.911000000     3.099000000
C     1.521000000     2.677000000     4.278000000
C     2.640000000     3.377000000     3.809000000
H     3.472000000     2.769000000     3.463000000
C     0.371000000     3.379000000     4.660000000
H    -0.497000000     2.863000000     5.064000000
C     0.362000000     4.784000000     4.624000000
O    -0.779000000     5.462000000     4.831000000
C     1.491000000     5.451000000     4.194000000
H     1.348000000     6.529000000     4.173000000
C     2.645000000     4.761000000     3.774000000
O     3.683000000     5.371000000     3.116000000
C     4.574000000     4.808000000     2.294000000
C     4.196000000     4.296000000     1.056000000
H     3.148000000     4.414000000     0.792000000
C     5.939000000     4.680000000     2.711000000
H     6.367000000     5.143000000     3.597000000
C     6.804000000     4.036000000     1.866000000
H     7.868000000     3.928000000     2.063000000
C     6.416000000     3.579000000     0.581000000
H     7.157000000     3.210000000    -0.124000000
C     5.124000000     3.667000000     0.205000000
O     4.806000000     3.578000000    -1.147000000
C     4.711000000     2.471000000    -1.825000000
C     4.897000000     2.404000000    -3.164000000
H     5.293000000     3.232000000    -3.746000000
C     4.749000000     1.229000000    -3.880000000
O     4.736000000     1.156000000    -5.279000000
C     3.783000000     0.446000000    -6.024000000
C     2.427000000     0.802000000    -5.870000000
H     2.153000000     1.452000000    -5.043000000
C     4.111000000    -0.549000000    -6.932000000
H     5.128000000    -0.913000000    -7.055000000
C     3.105000000    -1.255000000    -7.595000000
H     3.451000000    -2.000000000    -8.306000000
C     1.777000000    -0.835000000    -7.523000000
H     0.991000000    -1.268000000    -8.136000000
C     1.429000000     0.177000000    -6.593000000
O     0.062000000     0.482000000    -6.460000000
C    -0.900000000    -0.259000000    -5.858000000
C    -2.204000000    -0.042000000    -6.257000000
H    -2.346000000     0.763000000    -6.974000000
C    -3.208000000    -0.814000000    -5.738000000
O    -4.546000000    -0.451000000    -5.885000000
C    -5.284000000    -0.136000000    -4.780000000
C    -4.883000000     0.828000000    -3.860000000
H    -3.962000000     1.355000000    -4.095000000
C    -6.438000000    -0.896000000    -4.543000000
H    -6.732000000    -1.752000000    -5.145000000
C    -6.979000000    -0.822000000    -3.228000000
H    -7.761000000    -1.534000000    -2.975000000
C    -6.545000000     0.116000000    -2.328000000
H    -7.108000000     0.271000000    -1.411000000
C    -5.535000000     1.010000000    -2.627000000
O    -5.298000000     2.106000000    -1.871000000
C    -4.988000000     1.946000000    -0.543000000
C    -5.005000000     3.054000000     0.240000000
H    -5.222000000     4.045000000    -0.148000000
C    -4.632000000     2.962000000     1.556000000
O    -4.678000000     4.088000000     2.331000000
C    -3.976000000     4.139000000     3.553000000
C    -4.628000000     3.960000000     4.781000000
H    -5.664000000     3.649000000     4.893000000
C    -3.964000000     4.173000000     5.985000000
H    -4.425000000     4.021000000     6.958000000
C    -2.675000000     4.661000000     5.948000000
H    -2.264000000     4.974000000     6.904000000
C    -2.009000000     4.925000000     4.719000000
C    -2.675000000     4.641000000     3.531000000
H    -2.165000000     4.920000000     2.612000000
C    -0.670000000     1.444000000    -1.466000000
H    -0.545000000     1.342000000    -2.541000000
C    -0.113000000     0.539000000    -0.602000000
H     0.369000000    -0.379000000    -0.928000000
C    -0.267000000     0.706000000     0.817000000
H     0.107000000    -0.051000000     1.522000000
C    -0.794000000     1.917000000     1.280000000
H    -0.897000000     2.140000000     2.339000000
C    -1.298000000     2.825000000     0.380000000
H    -1.697000000     3.739000000     0.813000000
C    -1.371000000     2.570000000    -1.018000000
C    -1.828000000     3.620000000    -1.950000000
O    -1.969000000     4.776000000    -1.502000000
O    -1.759000000     3.515000000    -3.159000000
O    -3.101000000     6.416000000    -4.632000000
H    -2.735000000     5.655000000    -5.083000000
H    -2.446000000     6.640000000    -3.971000000
O     3.218000000     5.708000000    -3.738000000
H     2.840000000     6.586000000    -3.790000000
H     4.163000000     5.850000000    -3.794000000
O     0.258000000     5.878000000    -6.373000000
H    -0.289000000     5.303000000    -6.907000000
H     0.307000000     5.440000000    -5.523000000
O    -5.284000000     8.744000000    -1.629000000
H    -5.752000000     8.683000000    -2.462000000
H    -4.554000000     8.132000000    -1.720000000
O    -5.891000000     7.741000000     0.845000000
H    -5.731000000     8.154000000    -0.003000000
H    -5.517000000     6.864000000     0.759000000
O    -2.405000000     8.345000000    -0.168000000
H    -3.166000000     7.854000000    -0.478000000
H    -1.784000000     7.672000000     0.111000000
O    -2.849000000     3.809000000    -5.465000000
H    -2.309000000     3.589000000    -4.706000000
H    -3.732000000     3.914000000    -5.108000000
O    -5.322000000     4.357000000    -3.607000000
H    -5.370000000     3.454000000    -3.296000000
H    -5.976000000     4.405000000    -4.305000000
O    -0.350000000     6.245000000    -0.028000000
H    -0.955000000     5.641000000    -0.458000000
H     0.444000000     6.209000000    -0.560000000
O     0.128000000     5.130000000    -3.642000000
H     0.833000000     4.519000000    -3.429000000
H    -0.673000000     4.665000000    -3.396000000
O     1.383000000     7.675000000    -2.057000000
H     0.777000000     8.412000000    -1.981000000
H     0.988000000     7.107000000    -2.719000000
O    -1.361000000     4.214000000    -7.730000000
H    -1.939000000     4.179000000    -6.968000000
H    -1.952000000     4.170000000    -8.482000000
O    -8.643000000     2.548000000    -0.534000000
H    -9.144000000     2.706000000    -1.334000000
H    -7.795000000     2.962000000    -0.697000000
O    -0.572000000     9.713000000    -1.676000000
H    -0.903000000     9.976000000    -2.534000000
H    -1.268000000     9.167000000    -1.308000000
O    -6.857000000     5.873000000    -1.868000000
H    -6.278000000     5.369000000    -2.440000000
H    -7.295000000     6.490000000    -2.454000000
O     0.144000000     7.831000000     2.263000000
H     0.880000000     8.358000000     1.951000000
H     0.050000000     7.140000000     1.607000000
O     1.108000000     3.232000000    -8.154000000
H     0.814000000     2.356000000    -8.404000000
H     0.301000000     3.742000000    -8.077000000
O    -4.776000000     7.178000000    -6.725000000
H    -4.204000000     6.817000000    -6.048000000
H    -5.410000000     6.482000000    -6.898000000
O    -3.684000000     6.623000000    -1.842000000
H    -4.122000000     6.316000000    -2.635000000
H    -3.099000000     5.905000000    -1.598000000
