215
-1450.12459
C     3.904000000     0.380000000     3.462000000
H     4.361000000     0.337000000     2.477000000
C     3.117000000    -0.662000000     3.899000000
C     2.484000000    -0.522000000     5.151000000
H     1.876000000    -1.392000000     5.384000000
C     2.903000000    -1.880000000     2.985000000
O     4.151000000    -2.397000000     2.390000000
H     2.262000000    -1.546000000     2.156000000
O     2.223000000    -3.000000000     3.620000000
C     1.176000000    -3.481000000     2.906000000
C    -0.111000000    -2.962000000     3.148000000
H    -0.265000000    -2.218000000     3.925000000
C    -1.206000000    -3.475000000     2.550000000
O    -2.453000000    -2.885000000     2.864000000
C    -1.080000000    -4.480000000     1.653000000
C    -2.383000000    -4.943000000     0.887000000
H    -2.236000000    -5.933000000     0.451000000
C    -2.637000000    -4.032000000    -0.348000000
C    -2.032000000    -4.252000000    -1.567000000
H    -1.373000000    -5.088000000    -1.785000000
H    -3.272000000    -5.034000000     1.514000000
C     0.196000000    -4.790000000     1.116000000
H     0.291000000    -5.566000000     0.361000000
C     1.327000000    -4.348000000     1.793000000
C     2.742000000    -4.773000000     1.470000000
H     2.722000000    -5.817000000     1.150000000
H     3.295000000    -4.862000000     2.408000000
C     3.443000000    -3.809000000     0.556000000
C     3.427000000    -3.967000000    -0.787000000
H     3.045000000    -4.917000000    -1.150000000
C     4.096000000    -2.708000000     1.066000000
C     4.575000000    -1.674000000     0.245000000
H     4.883000000    -0.719000000     0.663000000
C     4.222000000    -1.782000000    -1.099000000
O     4.517000000    -0.698000000    -1.928000000
C     3.479000000     0.067000000    -2.580000000
C     3.685000000     1.563000000    -2.535000000
C     2.805000000     2.393000000    -3.134000000
H     1.999000000     2.078000000    -3.791000000
C     4.659000000     2.125000000    -1.613000000
H     5.299000000     1.444000000    -1.059000000
O     3.165000000    -0.388000000    -3.953000000
H     2.626000000    -0.083000000    -1.902000000
C     3.694000000    -2.956000000    -1.692000000
C     3.362000000    -3.186000000    -3.193000000
H     3.277000000    -4.264000000    -3.344000000
H     4.226000000    -2.867000000    -3.780000000
C     2.037000000    -2.584000000    -3.640000000
C     0.832000000    -3.299000000    -3.611000000
H     0.764000000    -4.342000000    -3.312000000
C     2.005000000    -1.213000000    -3.990000000
C     0.803000000    -0.592000000    -4.197000000
H     0.874000000     0.470000000    -4.418000000
C    -0.363000000    -1.384000000    -4.292000000
O    -1.598000000    -0.798000000    -4.662000000
C    -2.483000000    -0.453000000    -3.589000000
C    -3.163000000     0.917000000    -3.738000000
C    -2.555000000     1.937000000    -4.539000000
H    -1.797000000     1.574000000    -5.228000000
C    -4.215000000     1.358000000    -2.978000000
H    -4.691000000     0.647000000    -2.308000000
O    -3.546000000    -1.435000000    -3.387000000
H    -1.883000000    -0.439000000    -2.667000000
C    -0.331000000    -2.691000000    -3.923000000
C    -1.626000000    -3.518000000    -3.923000000
H    -1.420000000    -4.544000000    -4.235000000
H    -2.290000000    -3.027000000    -4.638000000
C    -2.367000000    -3.385000000    -2.630000000
C    -3.194000000    -2.293000000    -2.407000000
C    -3.771000000    -2.070000000    -1.200000000
H    -4.350000000    -1.167000000    -1.024000000
C    -3.489000000    -2.949000000    -0.175000000
O    -3.986000000    -2.648000000     1.041000000
C    -2.986000000    -2.015000000     1.887000000
H    -2.146000000    -1.715000000     1.242000000
C    -3.576000000    -0.799000000     2.575000000
C    -2.822000000    -0.117000000     3.483000000
H    -1.864000000    -0.503000000     3.821000000
C    -4.787000000    -0.267000000     2.173000000
H    -5.306000000    -0.688000000     1.316000000
C    -5.249000000     0.938000000     2.698000000
O    -6.432000000     1.437000000     2.287000000
C    -4.556000000     1.522000000     3.743000000
H    -4.863000000     2.362000000     4.362000000
C    -3.353000000     1.010000000     4.077000000
O    -2.676000000     1.630000000     5.184000000
C    -1.854000000     1.011000000     6.100000000
C    -0.475000000     1.073000000     5.937000000
H    -0.007000000     1.688000000     5.173000000
C    -2.424000000     0.205000000     7.037000000
H    -3.503000000     0.296000000     7.134000000
C    -1.613000000    -0.449000000     7.952000000
H    -2.101000000    -0.986000000     8.762000000
C    -0.224000000    -0.224000000     7.976000000
H     0.401000000    -0.634000000     8.765000000
C     0.381000000     0.520000000     6.937000000
O     1.737000000     0.756000000     6.962000000
C     2.542000000     0.638000000     5.844000000
C     3.410000000     1.658000000     5.437000000
H     3.509000000     2.563000000     6.031000000
C     4.100000000     1.522000000     4.232000000
O     4.744000000     2.663000000     3.771000000
C     5.597000000     2.737000000     2.725000000
C     5.247000000     3.407000000     1.601000000
H     4.212000000     3.738000000     1.619000000
C     6.933000000     2.302000000     2.805000000
H     7.151000000     1.915000000     3.797000000
C     7.820000000     2.518000000     1.825000000
H     8.861000000     2.254000000     1.995000000
C     7.402000000     3.060000000     0.572000000
H     8.129000000     3.263000000    -0.210000000
C     6.067000000     3.504000000     0.553000000
O     5.544000000     4.122000000    -0.524000000
C     4.603000000     3.504000000    -1.361000000
C     3.627000000     4.335000000    -1.918000000
H     3.625000000     5.363000000    -1.567000000
C     2.675000000     3.727000000    -2.737000000
O     1.696000000     4.517000000    -3.363000000
C     1.012000000     4.277000000    -4.536000000
C    -0.408000000     4.217000000    -4.451000000
H    -0.825000000     4.101000000    -3.454000000
C     1.602000000     4.267000000    -5.815000000
H     2.668000000     4.071000000    -5.902000000
C     0.817000000     4.175000000    -6.895000000
H     1.277000000     4.041000000    -7.871000000
C    -0.566000000     4.210000000    -6.901000000
H    -1.164000000     4.211000000    -7.809000000
C    -1.152000000     4.277000000    -5.631000000
O    -2.533000000     4.126000000    -5.587000000
C    -3.014000000     3.291000000    -4.642000000
C    -3.972000000     3.673000000    -3.720000000
H    -4.428000000     4.658000000    -3.771000000
C    -4.536000000     2.737000000    -2.822000000
O    -5.591000000     3.171000000    -2.053000000
C    -6.391000000     2.450000000    -1.213000000
C    -7.696000000     2.277000000    -1.597000000
H    -7.996000000     2.424000000    -2.631000000
C    -8.574000000     1.685000000    -0.734000000
H    -9.555000000     1.497000000    -1.163000000
C    -8.151000000     1.320000000     0.511000000
H    -8.840000000     0.779000000     1.155000000
C    -6.822000000     1.671000000     1.009000000
C    -5.943000000     2.219000000     0.093000000
H    -5.007000000     2.654000000     0.434000000
C    -0.940000000     1.259000000     0.658000000
H    -1.979000000     1.540000000     0.808000000
C    -0.599000000     0.029000000     0.099000000
H    -1.366000000    -0.629000000    -0.303000000
C     0.739000000    -0.303000000    -0.001000000
H     0.964000000    -1.295000000    -0.354000000
C     1.768000000     0.569000000     0.466000000
H     2.809000000     0.263000000     0.396000000
C     1.352000000     1.846000000     0.947000000
H     2.116000000     2.576000000     1.204000000
C     0.040000000     2.227000000     1.071000000
C    -0.389000000     3.577000000     1.640000000
O     0.497000000     4.339000000     2.082000000
O    -1.522000000     4.049000000     1.573000000
O    -0.171000000     7.024000000     1.785000000
H    -0.034000000     6.077000000     1.803000000
H    -0.780000000     7.164000000     1.060000000
O     0.474000000     5.995000000    -1.014000000
H     0.442000000     5.416000000    -1.776000000
H    -0.400000000     5.930000000    -0.628000000
O     5.253000000     6.702000000     1.142000000
H     4.807000000     7.547000000     1.212000000
H     4.577000000     6.099000000     0.833000000
O     0.833000000     4.091000000     4.901000000
H     1.720000000     3.734000000     4.847000000
H     0.679000000     4.481000000     4.040000000
O    -4.791000000     4.375000000     5.951000000
H    -4.660000000     5.243000000     6.333000000
H    -4.443000000     4.451000000     5.062000000
O     2.219000000     8.252000000     2.858000000
H     1.373000000     8.071000000     2.448000000
H     2.685000000     8.790000000     2.218000000
O    -3.343000000     4.496000000     3.338000000
H    -2.996000000     3.854000000     3.957000000
H    -2.743000000     4.458000000     2.593000000
O     3.447000000     5.844000000     3.619000000
H     2.870000000     6.596000000     3.759000000
H     3.276000000     5.577000000     2.716000000
O     1.742000000     8.386000000    -1.649000000
H     2.642000000     8.073000000    -1.733000000
H     1.203000000     7.614000000    -1.820000000
O    -1.547000000     5.216000000     5.828000000
H    -1.462000000     6.157000000     5.677000000
H    -0.659000000     4.876000000     5.724000000
O    -2.439000000     6.257000000    -2.481000000
H    -2.522000000     5.837000000    -1.625000000
H    -3.318000000     6.581000000    -2.675000000
O    -0.839000000     7.462000000     4.582000000
H    -0.604000000     7.270000000     3.674000000
H    -0.124000000     8.012000000     4.903000000
O     2.683000000     5.012000000     7.166000000
H     2.058000000     4.845000000     6.460000000
H     2.667000000     4.214000000     7.694000000
O     2.581000000     5.585000000     0.722000000
H     2.080000000     5.028000000     1.318000000
H     1.919000000     6.110000000     0.272000000
O    -2.527000000     3.975000000     8.083000000
H    -1.668000000     4.370000000     8.229000000
H    -2.672000000     4.057000000     7.140000000
O    -0.581000000     9.506000000    -0.623000000
H    -0.401000000     9.799000000     0.270000000
H     0.227000000     9.075000000    -0.901000000
O    -3.856000000     7.078000000     4.069000000
H    -3.354000000     7.225000000     4.871000000
H    -3.740000000     6.146000000     3.881000000
O    -2.843000000     5.637000000     0.040000000
H    -3.699000000     5.798000000     0.437000000
H    -2.429000000     4.995000000     0.616000000
O    -2.925000000     9.438000000     3.442000000
H    -2.902000000     8.499000000     3.626000000
H    -2.863000000     9.853000000     4.302000000
