215
-1415.89060
C     3.736000000     0.997000000     3.276000000
H     4.286000000     0.735000000     2.375000000
C     2.899000000     0.055000000     3.815000000
C     2.059000000     0.326000000     4.932000000
H     1.363000000    -0.424000000     5.300000000
C     2.659000000    -1.230000000     3.021000000
O     3.857000000    -1.770000000     2.451000000
H     1.938000000    -0.963000000     2.234000000
O     2.030000000    -2.191000000     3.877000000
C     1.063000000    -2.975000000     3.263000000
C    -0.239000000    -2.634000000     3.500000000
H    -0.421000000    -1.933000000     4.310000000
C    -1.341000000    -3.273000000     2.857000000
O    -2.606000000    -2.794000000     3.109000000
C    -1.007000000    -4.200000000     1.888000000
C    -2.209000000    -4.893000000     1.222000000
H    -1.858000000    -5.914000000     1.059000000
C    -2.574000000    -4.295000000    -0.073000000
C    -1.982000000    -4.613000000    -1.280000000
H    -1.172000000    -5.337000000    -1.251000000
H    -3.125000000    -4.913000000     1.815000000
C     0.344000000    -4.531000000     1.619000000
H     0.679000000    -5.170000000     0.806000000
C     1.373000000    -3.945000000     2.313000000
C     2.752000000    -4.353000000     1.803000000
H     2.702000000    -5.422000000     1.586000000
H     3.329000000    -4.301000000     2.728000000
C     3.471000000    -3.523000000     0.780000000
C     3.442000000    -3.900000000    -0.570000000
H     3.036000000    -4.892000000    -0.754000000
C     4.017000000    -2.283000000     1.186000000
C     4.365000000    -1.447000000     0.184000000
H     4.600000000    -0.423000000     0.460000000
C     4.355000000    -1.817000000    -1.150000000
O     4.728000000    -0.944000000    -2.081000000
C     3.636000000    -0.146000000    -2.690000000
C     4.024000000     1.307000000    -2.794000000
C     3.277000000     2.240000000    -3.555000000
H     2.453000000     1.906000000    -4.181000000
C     5.075000000     1.840000000    -1.972000000
H     5.763000000     1.239000000    -1.384000000
O     3.153000000    -0.696000000    -3.911000000
H     2.865000000    -0.226000000    -1.909000000
C     3.896000000    -3.035000000    -1.559000000
C     3.553000000    -3.398000000    -3.009000000
H     3.505000000    -4.478000000    -3.162000000
H     4.321000000    -3.042000000    -3.699000000
C     2.242000000    -2.806000000    -3.500000000
C     1.108000000    -3.609000000    -3.494000000
H     1.133000000    -4.634000000    -3.135000000
C     2.092000000    -1.455000000    -3.842000000
C     0.849000000    -0.972000000    -4.186000000
H     0.698000000     0.075000000    -4.437000000
C    -0.302000000    -1.784000000    -4.169000000
O    -1.521000000    -1.252000000    -4.525000000
C    -2.411000000    -0.913000000    -3.432000000
C    -2.895000000     0.494000000    -3.437000000
C    -2.046000000     1.543000000    -3.780000000
H    -0.983000000     1.360000000    -3.915000000
C    -4.266000000     0.751000000    -3.097000000
H    -5.038000000     0.012000000    -2.901000000
O    -3.434000000    -1.951000000    -3.359000000
H    -1.821000000    -0.931000000    -2.504000000
C    -0.178000000    -3.102000000    -3.794000000
C    -1.463000000    -4.091000000    -3.765000000
H    -1.053000000    -5.101000000    -3.705000000
H    -2.106000000    -4.066000000    -4.647000000
C    -2.223000000    -3.907000000    -2.462000000
C    -3.095000000    -2.807000000    -2.391000000
C    -3.716000000    -2.476000000    -1.159000000
H    -4.299000000    -1.567000000    -1.041000000
C    -3.316000000    -3.121000000    -0.010000000
O    -3.969000000    -2.691000000     1.079000000
C    -3.155000000    -1.925000000     2.098000000
H    -2.268000000    -1.427000000     1.681000000
C    -3.916000000    -0.711000000     2.595000000
C    -3.302000000     0.057000000     3.513000000
H    -2.256000000    -0.157000000     3.718000000
C    -5.171000000    -0.362000000     2.086000000
H    -5.733000000    -0.960000000     1.374000000
C    -5.704000000     0.904000000     2.482000000
O    -6.971000000     1.276000000     1.994000000
C    -5.036000000     1.705000000     3.414000000
H    -5.530000000     2.629000000     3.702000000
C    -3.878000000     1.250000000     4.012000000
O    -3.146000000     2.098000000     4.876000000
C    -2.252000000     1.567000000     5.786000000
C    -0.944000000     1.993000000     5.777000000
H    -0.585000000     2.740000000     5.075000000
C    -2.612000000     0.596000000     6.739000000
H    -3.596000000     0.142000000     6.830000000
C    -1.629000000    -0.041000000     7.529000000
H    -1.829000000    -0.768000000     8.313000000
C    -0.301000000     0.485000000     7.545000000
H     0.440000000     0.099000000     8.240000000
C     0.011000000     1.518000000     6.648000000
O     1.326000000     1.911000000     6.562000000
C     2.125000000     1.570000000     5.449000000
C     2.973000000     2.550000000     4.972000000
H     2.848000000     3.540000000     5.403000000
C     3.784000000     2.233000000     3.856000000
O     4.513000000     3.265000000     3.283000000
C     5.539000000     3.126000000     2.345000000
C     5.375000000     3.463000000     0.995000000
H     4.447000000     3.898000000     0.634000000
C     6.737000000     2.602000000     2.723000000
H     6.868000000     2.265000000     3.748000000
C     7.816000000     2.374000000     1.843000000
H     8.733000000     1.839000000     2.074000000
C     7.645000000     2.874000000     0.557000000
H     8.454000000     2.731000000    -0.154000000
C     6.424000000     3.448000000     0.158000000
O     6.206000000     3.794000000    -1.184000000
C     5.298000000     3.164000000    -1.950000000
C     4.510000000     4.066000000    -2.709000000
H     4.574000000     5.146000000    -2.606000000
C     3.575000000     3.597000000    -3.578000000
O     2.974000000     4.497000000    -4.420000000
C     1.707000000     4.450000000    -4.827000000
C     0.643000000     4.180000000    -3.942000000
H     0.940000000     3.980000000    -2.916000000
C     1.459000000     4.676000000    -6.167000000
H     2.243000000     4.878000000    -6.892000000
C     0.218000000     4.584000000    -6.652000000
H     0.076000000     4.676000000    -7.726000000
C    -0.877000000     4.278000000    -5.841000000
H    -1.863000000     4.174000000    -6.287000000
C    -0.643000000     4.122000000    -4.476000000
O    -1.607000000     3.951000000    -3.552000000
C    -2.479000000     2.876000000    -3.611000000
C    -3.732000000     3.104000000    -3.077000000
H    -4.070000000     4.084000000    -2.750000000
C    -4.633000000     2.066000000    -2.858000000
O    -5.926000000     2.434000000    -2.533000000
C    -6.786000000     1.707000000    -1.684000000
C    -8.083000000     1.281000000    -1.985000000
H    -8.486000000     1.148000000    -2.986000000
C    -8.926000000     0.831000000    -0.989000000
H    -9.917000000     0.481000000    -1.266000000
C    -8.566000000     0.754000000     0.339000000
H    -9.181000000     0.272000000     1.094000000
C    -7.261000000     1.215000000     0.667000000
C    -6.387000000     1.736000000    -0.296000000
H    -5.368000000     2.019000000    -0.046000000
C    -0.510000000     3.005000000     1.573000000
H    -1.432000000     3.382000000     2.007000000
C    -0.445000000     1.619000000     1.267000000
H    -1.247000000     0.929000000     1.517000000
C     0.719000000     1.156000000     0.620000000
H     0.703000000     0.081000000     0.394000000
C     1.725000000     1.969000000     0.230000000
H     2.537000000     1.623000000    -0.404000000
C     1.589000000     3.306000000     0.391000000
H     2.314000000     3.977000000    -0.064000000
C     0.533000000     3.848000000     1.154000000
C     0.383000000     5.304000000     1.175000000
O     1.297000000     5.983000000     0.827000000
O    -0.652000000     5.750000000     1.678000000
O     3.988000000     7.373000000     4.032000000
H     4.605000000     8.081000000     4.214000000
H     3.353000000     7.419000000     4.746000000
O    -2.120000000     7.952000000     1.972000000
H    -2.685000000     7.722000000     2.709000000
H    -1.847000000     7.110000000     1.608000000
O     2.267000000     7.429000000     6.037000000
H     1.490000000     7.290000000     5.496000000
H     2.009000000     7.129000000     6.908000000
O     2.139000000     8.084000000    -3.871000000
H     1.849000000     7.528000000    -3.148000000
H     3.090000000     7.980000000    -3.887000000
O    -1.046000000     6.544000000     4.468000000
H    -0.849000000     6.110000000     3.638000000
H    -1.501000000     5.879000000     4.985000000
O    -5.074000000     6.119000000     0.853000000
H    -4.282000000     5.593000000     0.740000000
H    -5.792000000     5.495000000     0.746000000
O     2.121000000     9.964000000     3.117000000
H     2.957000000    10.021000000     2.654000000
H     1.635000000     9.284000000     2.650000000
O     1.289000000    10.457000000    -2.578000000
H     1.397000000     9.530000000    -2.791000000
H     0.922000000    10.458000000    -1.694000000
O    -1.611000000     6.461000000    -2.130000000
H    -2.549000000     6.653000000    -2.101000000
H    -1.547000000     5.655000000    -2.641000000
O     6.549000000     7.193000000     2.004000000
H     5.688000000     6.795000000     1.873000000
H     6.445000000     8.094000000     1.700000000
O     3.859000000     8.521000000    -0.892000000
H     4.061000000     8.125000000    -1.740000000
H     3.284000000     7.888000000    -0.463000000
O    -2.540000000    10.551000000     1.382000000
H    -2.147000000    11.066000000     2.086000000
H    -2.524000000     9.650000000     1.707000000
O     0.981000000     7.514000000    -1.386000000
H     1.077000000     7.069000000    -0.544000000
H     0.196000000     7.129000000    -1.773000000
O    -1.692000000     9.313000000    -2.365000000
H    -1.693000000     9.037000000    -3.281000000
H    -1.643000000     8.496000000    -1.868000000
O     0.504000000     8.353000000     1.410000000
H    -0.322000000     8.154000000     1.850000000
H     0.886000000     7.496000000     1.218000000
O     3.900000000     6.855000000     1.399000000
H     3.040000000     6.444000000     1.306000000
H     3.913000000     7.184000000     2.298000000
O    -2.154000000     9.048000000     5.937000000
H    -2.920000000     9.364000000     5.458000000
H    -1.560000000     8.730000000     5.257000000
O     0.414000000    10.540000000     0.047000000
H     0.420000000     9.708000000     0.521000000
H    -0.514000000    10.730000000    -0.093000000
O    -2.733000000     5.019000000     0.163000000
H    -2.178000000     4.720000000    -0.557000000
H    -2.132000000     5.461000000     0.762000000
