215
-1455.15081
C     2.244000000     0.228000000     4.133000000
H     3.013000000     0.013000000     3.395000000
C     1.268000000    -0.629000000     4.419000000
C     0.326000000    -0.294000000     5.449000000
H    -0.475000000    -0.937000000     5.802000000
C     1.072000000    -1.867000000     3.522000000
O     2.344000000    -2.476000000     3.287000000
H     0.702000000    -1.471000000     2.565000000
O     0.158000000    -2.809000000     4.038000000
C    -0.723000000    -3.512000000     3.176000000
C    -2.000000000    -2.983000000     3.080000000
H    -2.315000000    -2.159000000     3.715000000
C    -2.828000000    -3.385000000     2.030000000
O    -3.988000000    -2.612000000     1.807000000
C    -2.395000000    -4.253000000     1.017000000
C    -3.241000000    -4.616000000    -0.192000000
H    -2.952000000    -5.607000000    -0.549000000
C    -3.138000000    -3.586000000    -1.305000000
C    -2.201000000    -3.941000000    -2.326000000
H    -1.657000000    -4.881000000    -2.329000000
H    -4.275000000    -4.642000000     0.159000000
C    -1.117000000    -4.844000000     1.170000000
H    -0.771000000    -5.650000000     0.527000000
C    -0.316000000    -4.477000000     2.212000000
C     1.078000000    -4.986000000     2.116000000
H     1.166000000    -5.990000000     1.694000000
H     1.449000000    -5.156000000     3.128000000
C     2.054000000    -4.064000000     1.355000000
C     2.396000000    -4.360000000    -0.019000000
H     1.893000000    -5.171000000    -0.538000000
C     2.651000000    -2.957000000     1.976000000
C     3.592000000    -2.221000000     1.274000000
H     3.962000000    -1.272000000     1.653000000
C     3.891000000    -2.539000000    -0.076000000
O     4.609000000    -1.636000000    -0.809000000
C     3.915000000    -0.614000000    -1.563000000
C     4.506000000     0.758000000    -1.311000000
C     4.380000000     1.760000000    -2.273000000
H     3.946000000     1.503000000    -3.236000000
C     5.180000000     1.038000000    -0.098000000
H     5.233000000     0.239000000     0.637000000
O     4.028000000    -1.038000000    -2.958000000
H     2.848000000    -0.646000000    -1.297000000
C     3.263000000    -3.626000000    -0.727000000
C     3.616000000    -3.830000000    -2.220000000
H     3.618000000    -4.880000000    -2.519000000
H     4.661000000    -3.603000000    -2.441000000
C     2.701000000    -3.014000000    -3.091000000
C     1.477000000    -3.584000000    -3.564000000
H     1.342000000    -4.659000000    -3.474000000
C     2.968000000    -1.719000000    -3.446000000
C     2.061000000    -0.905000000    -4.155000000
H     2.194000000     0.171000000    -4.227000000
C     0.782000000    -1.423000000    -4.370000000
O    -0.119000000    -0.568000000    -4.958000000
C    -1.253000000    -0.156000000    -4.194000000
C    -1.500000000     1.378000000    -4.330000000
C    -0.416000000     2.274000000    -4.242000000
H     0.569000000     1.853000000    -4.055000000
C    -2.761000000     1.882000000    -4.443000000
H    -3.601000000     1.194000000    -4.503000000
O    -2.439000000    -0.969000000    -4.466000000
H    -0.978000000    -0.259000000    -3.134000000
C     0.468000000    -2.788000000    -4.155000000
C    -0.879000000    -3.382000000    -4.522000000
H    -0.852000000    -4.472000000    -4.568000000
H    -1.247000000    -3.031000000    -5.489000000
C    -1.949000000    -3.109000000    -3.451000000
C    -2.711000000    -1.918000000    -3.503000000
C    -3.498000000    -1.547000000    -2.417000000
H    -4.018000000    -0.602000000    -2.556000000
C    -3.771000000    -2.405000000    -1.304000000
O    -4.706000000    -1.949000000    -0.332000000
C    -3.972000000    -1.519000000     0.866000000
H    -2.909000000    -1.383000000     0.616000000
C    -4.468000000    -0.232000000     1.361000000
C    -4.396000000     0.021000000     2.725000000
H    -4.163000000    -0.769000000     3.435000000
C    -4.694000000     0.831000000     0.509000000
H    -4.617000000     0.605000000    -0.552000000
C    -5.070000000     2.114000000     0.958000000
O    -5.251000000     3.156000000     0.027000000
C    -4.863000000     2.432000000     2.261000000
H    -5.010000000     3.445000000     2.628000000
C    -4.646000000     1.377000000     3.190000000
O    -4.603000000     1.717000000     4.555000000
C    -3.901000000     1.092000000     5.555000000
C    -2.573000000     1.438000000     5.704000000
H    -2.062000000     1.961000000     4.900000000
C    -4.651000000     0.568000000     6.603000000
H    -5.726000000     0.457000000     6.484000000
C    -4.003000000     0.264000000     7.789000000
H    -4.619000000    -0.127000000     8.594000000
C    -2.632000000     0.610000000     7.947000000
H    -2.178000000     0.544000000     8.932000000
C    -1.930000000     1.095000000     6.884000000
O    -0.619000000     1.272000000     6.981000000
C     0.393000000     0.875000000     6.163000000
C     1.474000000     1.709000000     5.936000000
H     1.625000000     2.637000000     6.481000000
C     2.368000000     1.390000000     4.910000000
O     3.336000000     2.296000000     4.695000000
C     4.616000000     1.964000000     4.168000000
C     4.945000000     2.373000000     2.892000000
H     4.344000000     3.076000000     2.321000000
C     5.549000000     1.289000000     4.937000000
H     5.366000000     0.945000000     5.951000000
C     6.836000000     1.071000000     4.491000000
H     7.614000000     0.581000000     5.071000000
C     7.218000000     1.568000000     3.241000000
H     8.255000000     1.512000000     2.920000000
C     6.245000000     2.165000000     2.401000000
O     6.543000000     2.627000000     1.175000000
C     5.755000000     2.314000000     0.077000000
C     5.706000000     3.314000000    -0.904000000
H     6.166000000     4.282000000    -0.719000000
C     4.987000000     3.031000000    -2.094000000
O     5.066000000     3.939000000    -3.099000000
C     4.002000000     4.048000000    -4.029000000
C     2.667000000     3.892000000    -3.581000000
H     2.473000000     3.677000000    -2.533000000
C     4.262000000     4.124000000    -5.414000000
H     5.267000000     4.005000000    -5.810000000
C     3.188000000     4.242000000    -6.263000000
H     3.220000000     4.356000000    -7.344000000
C     1.889000000     4.414000000    -5.816000000
H     1.024000000     4.584000000    -6.453000000
C     1.633000000     4.233000000    -4.413000000
O     0.371000000     4.452000000    -3.907000000
C    -0.590000000     3.616000000    -4.245000000
C    -1.882000000     4.125000000    -4.390000000
H    -2.013000000     5.203000000    -4.360000000
C    -2.977000000     3.216000000    -4.410000000
O    -4.234000000     3.722000000    -4.521000000
C    -5.221000000     3.345000000    -3.598000000
C    -6.361000000     2.582000000    -3.895000000
H    -6.495000000     2.339000000    -4.946000000
C    -7.140000000     2.054000000    -2.872000000
H    -7.995000000     1.417000000    -3.083000000
C    -6.796000000     2.348000000    -1.568000000
H    -7.302000000     1.885000000    -0.724000000
C    -5.595000000     3.003000000    -1.260000000
C    -4.822000000     3.580000000    -2.260000000
H    -3.908000000     4.063000000    -1.925000000
C    -0.567000000     2.717000000    -0.787000000
H    -1.358000000     3.388000000    -1.115000000
C    -0.874000000     1.366000000    -0.719000000
H    -1.865000000     1.094000000    -1.074000000
C     0.086000000     0.414000000    -0.283000000
H    -0.151000000    -0.620000000    -0.181000000
C     1.378000000     0.875000000     0.081000000
H     2.093000000     0.133000000     0.428000000
C     1.604000000     2.271000000     0.130000000
H     2.581000000     2.656000000     0.408000000
C     0.689000000     3.183000000    -0.332000000
C     1.105000000     4.648000000    -0.206000000
O     2.016000000     5.017000000     0.502000000
O     0.352000000     5.452000000    -0.626000000
O     7.007000000     5.386000000     2.310000000
H     7.012000000     5.125000000     3.231000000
H     6.152000000     5.105000000     1.985000000
O    -3.160000000     8.021000000     2.576000000
H    -3.454000000     7.379000000     1.929000000
H    -2.439000000     8.480000000     2.146000000
O    -0.921000000     8.320000000    -3.479000000
H    -0.192000000     8.254000000    -4.095000000
H    -1.326000000     9.165000000    -3.676000000
O    -1.697000000     5.319000000     4.781000000
H    -2.014000000     5.535000000     3.904000000
H    -1.386000000     4.417000000     4.708000000
O     1.389000000     7.864000000     1.479000000
H     1.596000000     7.060000000     1.003000000
H     2.228000000     8.150000000     1.842000000
O     5.022000000     6.909000000    -3.062000000
H     4.485000000     6.343000000    -2.506000000
H     4.454000000     7.128000000    -3.800000000
O     1.370000000     4.776000000     3.140000000
H     1.295000000     3.822000000     3.127000000
H     1.566000000     5.013000000     2.233000000
O    -1.815000000     5.111000000     1.483000000
H    -1.020000000     5.410000000     1.040000000
H    -2.514000000     5.647000000     1.107000000
O    -0.405000000     8.188000000     4.180000000
H    -1.006000000     7.446000000     4.257000000
H     0.118000000     7.992000000     3.403000000
O    -1.014000000     9.069000000     0.569000000
H    -1.247000000     8.352000000    -0.022000000
H    -0.109000000     8.887000000     0.821000000
O    -1.085000000     2.812000000     2.717000000
H    -1.375000000     2.109000000     2.136000000
H    -1.363000000     3.616000000     2.278000000
O     1.037000000     4.903000000     6.108000000
H     1.068000000     5.111000000     5.174000000
H     0.881000000     5.745000000     6.536000000
O    -4.076000000     6.700000000     0.329000000
H    -4.811000000     7.212000000    -0.009000000
H    -3.329000000     6.974000000    -0.204000000
O     1.658000000     6.775000000    -2.586000000
H     1.283000000     6.273000000    -1.863000000
H     1.310000000     6.357000000    -3.374000000
O     1.962000000     9.551000000    -2.536000000
H     1.921000000     8.627000000    -2.288000000
H     1.104000000     9.901000000    -2.298000000
O     4.287000000     5.457000000     1.555000000
H     3.607000000     5.452000000     0.882000000
H     3.886000000     5.909000000     2.298000000
O     5.866000000     7.978000000     1.148000000
H     5.932000000     8.698000000     1.775000000
H     5.160000000     7.428000000     1.488000000
O     3.690000000     8.122000000     3.051000000
H     3.884000000     8.998000000     3.385000000
H     3.858000000     7.541000000     3.793000000
O    -1.668000000     6.915000000    -1.072000000
H    -1.676000000     7.179000000    -1.992000000
H    -0.846000000     6.435000000    -0.968000000
