215
-1466.04730
C     4.928000000     0.031000000    -2.522000000
H     4.761000000    -0.928000000    -3.006000000
C     4.610000000     0.191000000    -1.207000000
C     4.910000000     1.410000000    -0.577000000
H     4.562000000     1.525000000     0.447000000
C     4.184000000    -0.939000000    -0.295000000
O     4.428000000    -2.200000000    -1.021000000
H     3.101000000    -0.783000000    -0.180000000
O     4.897000000    -1.096000000     0.987000000
C     4.023000000    -1.342000000     2.080000000
C     3.455000000    -0.253000000     2.729000000
H     3.760000000     0.776000000     2.558000000
C     2.533000000    -0.464000000     3.760000000
O     2.161000000     0.559000000     4.497000000
C     2.164000000    -1.766000000     4.132000000
C     1.074000000    -2.099000000     5.116000000
H     1.147000000    -3.142000000     5.431000000
C    -0.261000000    -1.873000000     4.546000000
C    -1.022000000    -2.955000000     4.063000000
H    -0.612000000    -3.958000000     4.160000000
H     1.161000000    -1.499000000     6.024000000
C     2.771000000    -2.871000000     3.475000000
H     2.418000000    -3.889000000     3.620000000
C     3.568000000    -2.655000000     2.386000000
C     3.832000000    -3.838000000     1.454000000
H     3.722000000    -4.791000000     1.976000000
H     4.870000000    -3.768000000     1.122000000
C     3.060000000    -3.925000000     0.162000000
C     1.886000000    -4.718000000     0.178000000
H     1.551000000    -5.268000000     1.054000000
C     3.442000000    -3.222000000    -1.010000000
C     2.591000000    -3.276000000    -2.102000000
H     2.750000000    -2.610000000    -2.945000000
C     1.397000000    -3.998000000    -2.069000000
O     0.541000000    -3.699000000    -3.071000000
C    -0.592000000    -2.873000000    -2.940000000
C    -0.804000000    -1.854000000    -4.045000000
C    -2.049000000    -1.622000000    -4.560000000
H    -2.935000000    -2.047000000    -4.094000000
C     0.318000000    -1.173000000    -4.542000000
H     1.306000000    -1.290000000    -4.106000000
O    -1.709000000    -3.686000000    -2.694000000
H    -0.414000000    -2.263000000    -2.043000000
C     1.028000000    -4.763000000    -0.967000000
C    -0.256000000    -5.467000000    -1.002000000
H    -0.180000000    -6.351000000    -0.365000000
H    -0.405000000    -5.823000000    -2.024000000
C    -1.431000000    -4.589000000    -0.552000000
C    -1.764000000    -4.541000000     0.828000000
H    -1.288000000    -5.198000000     1.550000000
C    -2.095000000    -3.755000000    -1.403000000
C    -3.258000000    -3.057000000    -0.991000000
H    -3.872000000    -2.475000000    -1.673000000
C    -3.549000000    -3.046000000     0.370000000
O    -4.500000000    -2.172000000     0.791000000
C    -3.997000000    -0.959000000     1.383000000
C    -4.719000000     0.296000000     0.921000000
C    -5.019000000     0.414000000    -0.409000000
H    -4.790000000    -0.403000000    -1.089000000
C    -5.061000000     1.365000000     1.792000000
H    -4.781000000     1.336000000     2.842000000
O    -3.995000000    -1.023000000     2.886000000
H    -2.957000000    -0.773000000     1.075000000
C    -2.812000000    -3.753000000     1.303000000
C    -3.078000000    -3.844000000     2.828000000
H    -2.767000000    -4.846000000     3.131000000
H    -4.159000000    -3.695000000     2.867000000
C    -2.362000000    -2.722000000     3.501000000
C    -2.868000000    -1.421000000     3.527000000
C    -2.038000000    -0.353000000     3.890000000
H    -2.441000000     0.655000000     3.836000000
C    -0.787000000    -0.569000000     4.475000000
O    -0.156000000     0.507000000     5.022000000
C     0.824000000     1.100000000     4.084000000
H     0.645000000     0.669000000     3.088000000
C     0.671000000     2.580000000     3.823000000
C     1.756000000     3.288000000     3.272000000
H     2.730000000     2.825000000     3.135000000
C    -0.657000000     3.202000000     3.950000000
H    -1.498000000     2.599000000     4.284000000
C    -0.767000000     4.507000000     3.322000000
O    -1.927000000     5.265000000     3.379000000
C     0.371000000     5.210000000     2.933000000
H     0.193000000     6.243000000     2.646000000
C     1.629000000     4.619000000     2.839000000
O     2.562000000     5.472000000     2.302000000
C     3.789000000     5.003000000     1.949000000
C     4.147000000     4.401000000     0.740000000
H     3.320000000     4.055000000     0.125000000
C     4.806000000     5.347000000     2.838000000
H     4.612000000     5.938000000     3.729000000
C     6.132000000     5.128000000     2.446000000
H     6.899000000     5.467000000     3.138000000
C     6.497000000     4.635000000     1.158000000
H     7.576000000     4.667000000     1.028000000
C     5.479000000     4.183000000     0.384000000
O     5.720000000     3.662000000    -0.863000000
C     5.459000000     2.420000000    -1.358000000
C     5.704000000     2.280000000    -2.701000000
H     6.160000000     3.104000000    -3.243000000
C     5.401000000     1.059000000    -3.326000000
O     5.728000000     0.843000000    -4.598000000
C     4.796000000     0.217000000    -5.431000000
C     3.521000000     0.698000000    -5.421000000
H     3.176000000     1.471000000    -4.739000000
C     5.239000000    -0.589000000    -6.450000000
H     6.295000000    -0.829000000    -6.534000000
C     4.327000000    -1.146000000    -7.327000000
H     4.788000000    -1.778000000    -8.081000000
C     2.930000000    -0.768000000    -7.236000000
H     2.139000000    -1.127000000    -7.890000000
C     2.528000000     0.142000000    -6.267000000
O     1.227000000     0.490000000    -6.137000000
C     0.193000000    -0.188000000    -5.627000000
C    -1.071000000     0.095000000    -6.115000000
H    -1.253000000     0.902000000    -6.819000000
C    -2.208000000    -0.503000000    -5.517000000
O    -3.455000000    -0.089000000    -5.979000000
C    -4.506000000    -0.112000000    -5.097000000
C    -4.656000000     0.854000000    -4.126000000
H    -3.924000000     1.646000000    -3.992000000
C    -5.381000000    -1.214000000    -5.117000000
H    -5.233000000    -1.999000000    -5.854000000
C    -6.495000000    -1.347000000    -4.259000000
H    -7.259000000    -2.113000000    -4.153000000
C    -6.585000000    -0.382000000    -3.293000000
H    -7.307000000    -0.503000000    -2.490000000
C    -5.741000000     0.728000000    -3.266000000
O    -5.847000000     1.692000000    -2.277000000
C    -5.684000000     1.542000000    -0.920000000
C    -6.159000000     2.545000000    -0.067000000
H    -6.679000000     3.406000000    -0.480000000
C    -5.846000000     2.421000000     1.296000000
O    -6.206000000     3.377000000     2.171000000
C    -5.337000000     3.967000000     3.131000000
C    -5.681000000     3.978000000     4.470000000
H    -6.600000000     3.521000000     4.829000000
C    -4.789000000     4.460000000     5.455000000
H    -5.053000000     4.549000000     6.505000000
C    -3.503000000     4.901000000     5.117000000
H    -2.848000000     5.217000000     5.925000000
C    -3.130000000     4.742000000     3.756000000
C    -4.035000000     4.304000000     2.780000000
H    -3.784000000     4.249000000     1.723000000
C    -0.033000000     1.289000000    -2.173000000
H     0.383000000     1.251000000    -3.176000000
C     0.330000000     0.304000000    -1.264000000
H     0.970000000    -0.536000000    -1.521000000
C    -0.251000000     0.263000000    -0.017000000
H    -0.022000000    -0.605000000     0.640000000
C    -1.158000000     1.229000000     0.354000000
H    -1.512000000     1.173000000     1.380000000
C    -1.505000000     2.274000000    -0.486000000
H    -2.334000000     2.903000000    -0.171000000
C    -0.986000000     2.290000000    -1.738000000
C    -1.290000000     3.400000000    -2.724000000
O    -1.949000000     4.361000000    -2.295000000
O    -0.853000000     3.364000000    -3.872000000
O    -2.349000000     7.504000000    -5.198000000
H    -2.675000000     6.963000000    -5.918000000
H    -1.919000000     8.243000000    -5.629000000
O    -2.852000000     6.003000000    -7.355000000
H    -3.077000000     5.274000000    -6.776000000
H    -3.134000000     5.715000000    -8.223000000
O    -3.324000000     8.462000000    -2.941000000
H    -4.241000000     8.193000000    -2.990000000
H    -2.951000000     8.198000000    -3.782000000
O    -4.352000000     7.528000000     1.085000000
H    -4.788000000     6.883000000     0.528000000
H    -3.419000000     7.336000000     0.990000000
O    -0.908000000     6.532000000    -3.178000000
H    -1.230000000     5.707000000    -2.817000000
H    -1.503000000     6.726000000    -3.903000000
O    -1.804000000     3.431000000    -6.436000000
H    -1.404000000     3.281000000    -5.580000000
H    -2.745000000     3.352000000    -6.279000000
O    -4.622000000     3.479000000    -5.828000000
H    -4.831000000     3.978000000    -5.039000000
H    -5.422000000     2.989000000    -6.021000000
O    -2.119000000     5.964000000     0.099000000
H    -2.243000000     5.399000000    -0.664000000
H    -1.240000000     6.326000000    -0.012000000
O     1.855000000     3.628000000    -4.373000000
H     1.946000000     4.536000000    -4.084000000
H     1.012000000     3.347000000    -4.015000000
O     4.371000000     3.707000000    -5.403000000
H     3.967000000     3.887000000    -6.252000000
H     3.634000000     3.508000000    -4.825000000
O     1.831000000     6.264000000    -3.768000000
H     0.917000000     6.484000000    -3.949000000
H     2.336000000     6.890000000    -4.287000000
O    -1.982000000     2.145000000    -8.929000000
H    -1.783000000     2.541000000    -8.081000000
H    -2.408000000     2.843000000    -9.426000000
O    -2.063000000     9.403000000    -0.768000000
H    -2.301000000     8.637000000    -1.289000000
H    -1.732000000     9.041000000     0.053000000
O    -5.742000000     6.033000000    -0.870000000
H    -5.138000000     5.605000000    -1.477000000
H    -6.316000000     6.554000000    -1.432000000
O     0.195000000     8.731000000     1.708000000
H     1.048000000     9.151000000     1.818000000
H     0.305000000     8.161000000     0.948000000
O     0.951000000     3.263000000    -7.340000000
H     0.160000000     3.687000000    -7.008000000
H     1.228000000     2.682000000    -6.631000000
O    -4.451000000     4.593000000    -3.197000000
H    -3.580000000     4.639000000    -2.802000000
H    -4.819000000     3.772000000    -2.869000000
O     3.299000000     6.527000000    -1.238000000
H     2.880000000     6.565000000    -2.098000000
H     4.198000000     6.816000000    -1.396000000
O     0.211000000     7.473000000    -0.847000000
H     1.025000000     7.013000000    -1.054000000
H    -0.201000000     7.624000000    -1.698000000
