215
-1452.82747
C     2.310000000    -0.114000000     4.424000000
H     3.182000000    -0.423000000     3.853000000
C     1.160000000    -0.988000000     4.499000000
C     0.019000000    -0.572000000     5.288000000
H    -0.858000000    -1.209000000     5.367000000
C     0.957000000    -2.121000000     3.492000000
O     2.192000000    -2.859000000     3.405000000
H     0.541000000    -1.617000000     2.608000000
O    -0.121000000    -3.106000000     3.856000000
C    -0.880000000    -3.456000000     2.788000000
C    -2.104000000    -2.889000000     2.767000000
H    -2.317000000    -2.222000000     3.599000000
C    -2.970000000    -3.119000000     1.745000000
O    -4.120000000    -2.424000000     1.649000000
C    -2.641000000    -4.148000000     0.841000000
C    -3.537000000    -4.471000000    -0.360000000
H    -3.369000000    -5.508000000    -0.660000000
C    -3.543000000    -3.444000000    -1.508000000
C    -2.519000000    -3.794000000    -2.454000000
H    -2.022000000    -4.761000000    -2.422000000
H    -4.579000000    -4.520000000    -0.037000000
C    -1.368000000    -4.797000000     0.928000000
H    -1.136000000    -5.669000000     0.322000000
C    -0.468000000    -4.440000000     1.892000000
C     0.907000000    -5.142000000     1.981000000
H     0.802000000    -6.075000000     1.425000000
H     1.104000000    -5.447000000     3.011000000
C     1.975000000    -4.221000000     1.343000000
C     2.336000000    -4.433000000     0.005000000
H     1.733000000    -5.147000000    -0.551000000
C     2.568000000    -3.175000000     2.034000000
C     3.536000000    -2.405000000     1.454000000
H     3.907000000    -1.454000000     1.829000000
C     3.877000000    -2.590000000     0.144000000
O     4.785000000    -1.623000000    -0.419000000
C     4.181000000    -0.688000000    -1.378000000
C     4.841000000     0.655000000    -1.207000000
C     4.796000000     1.638000000    -2.175000000
H     4.396000000     1.433000000    -3.165000000
C     5.439000000     1.013000000     0.031000000
H     5.377000000     0.290000000     0.839000000
O     4.154000000    -1.216000000    -2.776000000
H     3.121000000    -0.472000000    -1.178000000
C     3.353000000    -3.651000000    -0.589000000
C     3.671000000    -3.857000000    -2.053000000
H     3.558000000    -4.906000000    -2.336000000
H     4.727000000    -3.638000000    -2.224000000
C     2.612000000    -3.044000000    -2.815000000
C     1.451000000    -3.653000000    -3.283000000
H     1.225000000    -4.665000000    -2.957000000
C     2.974000000    -1.772000000    -3.194000000
C     2.121000000    -1.027000000    -3.913000000
H     2.470000000    -0.016000000    -4.109000000
C     0.857000000    -1.481000000    -4.295000000
O     0.041000000    -0.542000000    -4.848000000
C    -1.010000000    -0.082000000    -3.971000000
C    -1.153000000     1.448000000    -4.095000000
C    -0.009000000     2.266000000    -4.287000000
H     0.963000000     1.801000000    -4.426000000
C    -2.386000000     2.122000000    -3.777000000
H    -3.304000000     1.595000000    -3.530000000
O    -2.254000000    -0.689000000    -4.381000000
H    -0.815000000    -0.358000000    -2.924000000
C     0.501000000    -2.825000000    -3.933000000
C    -0.880000000    -3.439000000    -4.298000000
H    -0.872000000    -4.530000000    -4.344000000
H    -1.099000000    -3.053000000    -5.296000000
C    -2.045000000    -2.946000000    -3.459000000
C    -2.707000000    -1.661000000    -3.519000000
C    -3.805000000    -1.318000000    -2.549000000
H    -4.218000000    -0.313000000    -2.551000000
C    -4.180000000    -2.178000000    -1.569000000
O    -4.894000000    -1.664000000    -0.538000000
C    -4.169000000    -1.326000000     0.673000000
H    -3.093000000    -1.282000000     0.449000000
C    -4.677000000     0.031000000     1.303000000
C    -4.713000000     0.264000000     2.636000000
H    -4.389000000    -0.447000000     3.392000000
C    -5.236000000     0.969000000     0.380000000
H    -5.264000000     0.738000000    -0.682000000
C    -5.699000000     2.168000000     0.888000000
O    -6.360000000     3.054000000     0.114000000
C    -5.592000000     2.461000000     2.308000000
H    -6.014000000     3.371000000     2.725000000
C    -5.211000000     1.492000000     3.191000000
O    -5.177000000     1.844000000     4.559000000
C    -4.384000000     1.115000000     5.422000000
C    -3.040000000     1.450000000     5.688000000
H    -2.594000000     2.297000000     5.173000000
C    -4.915000000    -0.068000000     5.953000000
H    -5.852000000    -0.502000000     5.615000000
C    -4.111000000    -0.914000000     6.759000000
H    -4.512000000    -1.860000000     7.115000000
C    -2.801000000    -0.576000000     7.012000000
H    -2.153000000    -1.173000000     7.647000000
C    -2.345000000     0.666000000     6.556000000
O    -0.988000000     0.986000000     6.830000000
C     0.121000000     0.605000000     6.050000000
C     1.268000000     1.417000000     5.993000000
H     1.199000000     2.372000000     6.507000000
C     2.386000000     1.047000000     5.251000000
O     3.459000000     1.977000000     5.099000000
C     4.595000000     1.691000000     4.519000000
C     4.890000000     2.227000000     3.316000000
H     4.150000000     2.881000000     2.862000000
C     5.607000000     1.076000000     5.277000000
H     5.242000000     0.775000000     6.256000000
C     6.865000000     0.797000000     4.691000000
H     7.575000000     0.246000000     5.302000000
C     7.078000000     1.268000000     3.435000000
H     8.028000000     1.064000000     2.946000000
C     6.189000000     2.038000000     2.710000000
O     6.609000000     2.592000000     1.542000000
C     5.980000000     2.287000000     0.316000000
C     6.027000000     3.165000000    -0.765000000
H     6.547000000     4.117000000    -0.701000000
C     5.461000000     2.819000000    -1.972000000
O     5.502000000     3.715000000    -3.012000000
C     4.582000000     3.902000000    -4.010000000
C     3.210000000     3.866000000    -3.757000000
H     2.885000000     3.814000000    -2.721000000
C     5.076000000     4.196000000    -5.246000000
H     6.125000000     4.303000000    -5.511000000
C     4.217000000     4.519000000    -6.309000000
H     4.664000000     4.771000000    -7.267000000
C     2.835000000     4.549000000    -6.030000000
H     2.144000000     4.774000000    -6.839000000
C     2.301000000     4.175000000    -4.805000000
O     0.961000000     4.519000000    -4.552000000
C    -0.082000000     3.681000000    -4.283000000
C    -1.271000000     4.321000000    -4.117000000
H    -1.326000000     5.405000000    -4.068000000
C    -2.422000000     3.538000000    -3.823000000
O    -3.602000000     4.237000000    -3.772000000
C    -4.809000000     3.970000000    -3.108000000
C    -5.940000000     3.968000000    -3.900000000
H    -5.701000000     4.002000000    -4.960000000
C    -7.218000000     3.708000000    -3.398000000
H    -7.985000000     3.734000000    -4.167000000
C    -7.320000000     3.394000000    -2.033000000
H    -8.276000000     3.242000000    -1.538000000
C    -6.204000000     3.310000000    -1.223000000
C    -4.919000000     3.540000000    -1.790000000
H    -4.016000000     3.434000000    -1.195000000
C    -0.714000000     1.648000000    -0.482000000
H    -1.402000000     2.311000000    -1.001000000
C    -0.669000000     0.285000000    -0.523000000
H    -1.538000000    -0.235000000    -0.919000000
C     0.358000000    -0.426000000     0.101000000
H     0.496000000    -1.453000000     0.011000000
C     1.342000000     0.325000000     0.786000000
H     2.106000000    -0.244000000     1.308000000
C     1.413000000     1.715000000     0.641000000
H     2.288000000     2.225000000     1.035000000
C     0.370000000     2.356000000     0.038000000
C     0.369000000     3.887000000     0.110000000
O     1.207000000     4.334000000     0.896000000
O    -0.542000000     4.539000000    -0.304000000
O    -1.077000000     7.841000000     5.473000000
H    -0.394000000     7.731000000     4.811000000
H    -1.828000000     7.362000000     5.124000000
O    -2.362000000     7.655000000     2.674000000
H    -1.976000000     7.459000000     1.820000000
H    -2.560000000     8.591000000     2.637000000
O    -2.298000000     5.213000000     3.983000000
H    -2.108000000     4.528000000     3.343000000
H    -2.368000000     6.014000000     3.463000000
O    -1.193000000    10.044000000     0.073000000
H    -0.749000000    10.380000000    -0.705000000
H    -1.356000000     9.121000000    -0.124000000
O     1.391000000     6.956000000     0.968000000
H     1.262000000     6.008000000     0.942000000
H     2.130000000     7.114000000     0.382000000
O     5.662000000     8.228000000    -1.535000000
H     4.859000000     7.712000000    -1.601000000
H     5.708000000     8.485000000    -0.614000000
O     0.912000000     4.087000000     3.567000000
H     0.138000000     3.538000000     3.436000000
H     1.229000000     4.268000000     2.683000000
O    -2.862000000     4.142000000     1.150000000
H    -2.172000000     4.205000000     0.489000000
H    -3.365000000     4.950000000     1.048000000
O     0.902000000     6.735000000     3.684000000
H     0.737000000     5.815000000     3.476000000
H     1.253000000     7.105000000     2.874000000
O    -1.281000000     7.162000000     0.021000000
H    -1.217000000     6.207000000     0.035000000
H    -0.395000000     7.459000000    -0.188000000
O    -1.232000000     2.359000000     2.816000000
H    -0.756000000     1.617000000     2.443000000
H    -1.837000000     2.627000000     2.125000000
O     1.868000000     5.273000000     6.218000000
H     1.491000000     5.269000000     5.338000000
H     2.802000000     5.116000000     6.080000000
O     3.429000000     6.617000000    -1.578000000
H     3.683000000     5.979000000    -0.912000000
H     2.539000000     6.364000000    -1.825000000
O     3.037000000     8.899000000    -3.203000000
H     2.744000000     8.285000000    -3.876000000
H     3.117000000     8.366000000    -2.412000000
O    -0.925000000     4.629000000     6.870000000
H    -1.396000000     4.609000000     6.037000000
H    -0.025000000     4.850000000     6.631000000
O     3.864000000     5.291000000     0.577000000
H     3.084000000     4.950000000     1.014000000
H     4.319000000     5.790000000     1.255000000
O     4.530000000     6.430000000     2.907000000
H     4.287000000     7.242000000     3.352000000
H     4.599000000     5.783000000     3.608000000
O    -5.283000000     5.713000000     0.769000000
H    -5.160000000     6.363000000     0.076000000
H    -5.741000000     4.990000000     0.340000000
O     0.895000000     6.160000000    -1.911000000
H     0.556000000     6.033000000    -2.797000000
H     0.442000000     5.502000000    -1.384000000
