215
-1490.19690
C     3.575000000    -0.273000000     3.913000000
H     4.258000000    -0.738000000     3.207000000
C     2.280000000    -0.829000000     3.991000000
C     1.322000000    -0.113000000     4.660000000
H     0.267000000    -0.375000000     4.648000000
C     1.827000000    -2.039000000     3.194000000
O     2.976000000    -2.734000000     2.837000000
H     1.408000000    -1.660000000     2.250000000
O     1.021000000    -3.026000000     3.964000000
C    -0.061000000    -3.381000000     3.299000000
C    -1.312000000    -2.760000000     3.475000000
H    -1.468000000    -2.018000000     4.254000000
C    -2.379000000    -3.079000000     2.665000000
O    -3.485000000    -2.275000000     2.884000000
C    -2.192000000    -3.984000000     1.649000000
C    -3.418000000    -4.320000000     0.709000000
H    -3.273000000    -5.334000000     0.331000000
C    -3.444000000    -3.380000000    -0.450000000
C    -2.896000000    -3.684000000    -1.662000000
H    -2.337000000    -4.608000000    -1.786000000
H    -4.389000000    -4.375000000     1.207000000
C    -0.968000000    -4.612000000     1.453000000
H    -0.788000000    -5.333000000     0.660000000
C     0.110000000    -4.328000000     2.307000000
C     1.417000000    -5.050000000     2.079000000
H     1.187000000    -6.033000000     1.664000000
H     1.891000000    -5.209000000     3.050000000
C     2.266000000    -4.220000000     1.075000000
C     2.132000000    -4.501000000    -0.300000000
H     1.577000000    -5.331000000    -0.730000000
C     3.067000000    -3.144000000     1.511000000
C     3.853000000    -2.478000000     0.545000000
H     4.611000000    -1.759000000     0.843000000
C     3.686000000    -2.748000000    -0.811000000
O     4.293000000    -1.842000000    -1.629000000
C     3.517000000    -0.786000000    -2.215000000
C     4.148000000     0.599000000    -2.029000000
C     3.445000000     1.715000000    -2.514000000
H     2.507000000     1.464000000    -3.003000000
C     5.178000000     0.761000000    -1.146000000
H     5.741000000    -0.083000000    -0.754000000
O     3.142000000    -1.045000000    -3.580000000
H     2.540000000    -0.733000000    -1.714000000
C     2.875000000    -3.731000000    -1.256000000
C     2.684000000    -3.942000000    -2.717000000
H     2.444000000    -4.981000000    -2.949000000
H     3.595000000    -3.797000000    -3.301000000
C     1.671000000    -3.048000000    -3.329000000
C     0.359000000    -3.554000000    -3.406000000
H     0.128000000    -4.501000000    -2.925000000
C     1.941000000    -1.725000000    -3.813000000
C     0.938000000    -0.951000000    -4.375000000
H     1.217000000    -0.003000000    -4.828000000
C    -0.363000000    -1.429000000    -4.352000000
O    -1.361000000    -0.549000000    -4.670000000
C    -2.090000000     0.124000000    -3.649000000
C    -2.406000000     1.581000000    -4.058000000
C    -1.423000000     2.268000000    -4.717000000
H    -0.532000000     1.759000000    -5.076000000
C    -3.553000000     2.268000000    -3.660000000
H    -4.199000000     1.739000000    -2.963000000
O    -3.325000000    -0.582000000    -3.516000000
H    -1.500000000     0.174000000    -2.723000000
C    -0.648000000    -2.743000000    -3.909000000
C    -2.110000000    -3.275000000    -3.994000000
H    -2.149000000    -4.366000000    -4.010000000
H    -2.513000000    -2.913000000    -4.942000000
C    -2.861000000    -2.819000000    -2.731000000
C    -3.443000000    -1.571000000    -2.526000000
C    -4.155000000    -1.258000000    -1.380000000
H    -4.628000000    -0.286000000    -1.270000000
C    -4.074000000    -2.129000000    -0.333000000
O    -4.625000000    -1.757000000     0.862000000
C    -3.648000000    -1.269000000     1.855000000
H    -2.686000000    -1.036000000     1.374000000
C    -4.094000000     0.104000000     2.410000000
C    -3.879000000     0.439000000     3.727000000
H    -3.421000000    -0.280000000     4.402000000
C    -4.694000000     1.006000000     1.569000000
H    -4.795000000     0.815000000     0.504000000
C    -5.170000000     2.197000000     2.139000000
O    -5.462000000     3.311000000     1.307000000
C    -4.881000000     2.576000000     3.451000000
H    -5.128000000     3.541000000     3.887000000
C    -4.199000000     1.668000000     4.298000000
O    -3.945000000     1.933000000     5.619000000
C    -2.889000000     1.420000000     6.184000000
C    -1.663000000     1.954000000     5.753000000
H    -1.552000000     2.751000000     5.022000000
C    -3.011000000     0.429000000     7.179000000
H    -4.019000000     0.246000000     7.543000000
C    -1.840000000    -0.129000000     7.712000000
H    -1.783000000    -0.809000000     8.559000000
C    -0.628000000     0.285000000     7.175000000
H     0.274000000    -0.168000000     7.579000000
C    -0.547000000     1.339000000     6.291000000
O     0.759000000     1.848000000     5.973000000
C     1.688000000     1.076000000     5.336000000
C     2.978000000     1.614000000     5.341000000
H     3.198000000     2.572000000     5.806000000
C     3.929000000     0.907000000     4.595000000
O     5.186000000     1.518000000     4.420000000
C     6.054000000     1.287000000     3.360000000
C     5.913000000     1.953000000     2.144000000
H     5.176000000     2.748000000     2.058000000
C     7.150000000     0.497000000     3.588000000
H     7.276000000     0.122000000     4.601000000
C     8.074000000     0.331000000     2.616000000
H     8.993000000    -0.218000000     2.804000000
C     7.938000000     0.956000000     1.417000000
H     8.695000000     0.797000000     0.653000000
C     6.853000000     1.781000000     1.144000000
O     6.715000000     2.323000000    -0.096000000
C     5.633000000     2.100000000    -0.963000000
C     4.911000000     3.214000000    -1.435000000
H     5.317000000     4.220000000    -1.364000000
C     3.830000000     2.996000000    -2.322000000
O     3.295000000     4.071000000    -3.049000000
C     2.687000000     3.934000000    -4.355000000
C     1.311000000     4.126000000    -4.528000000
H     0.751000000     4.473000000    -3.664000000
C     3.458000000     3.548000000    -5.441000000
H     4.521000000     3.333000000    -5.360000000
C     2.889000000     3.356000000    -6.665000000
H     3.451000000     3.028000000    -7.536000000
C     1.502000000     3.605000000    -6.862000000
H     1.044000000     3.603000000    -7.848000000
C     0.697000000     4.004000000    -5.745000000
O    -0.618000000     4.242000000    -5.920000000
C    -1.622000000     3.599000000    -5.126000000
C    -2.721000000     4.298000000    -4.618000000
H    -2.774000000     5.347000000    -4.898000000
C    -3.664000000     3.635000000    -3.884000000
O    -4.732000000     4.357000000    -3.383000000
C    -5.554000000     3.934000000    -2.345000000
C    -6.756000000     3.340000000    -2.607000000
H    -7.091000000     3.255000000    -3.638000000
C    -7.511000000     2.715000000    -1.645000000
H    -8.450000000     2.257000000    -1.946000000
C    -6.967000000     2.689000000    -0.341000000
H    -7.529000000     2.261000000     0.485000000
C    -5.779000000     3.270000000    -0.015000000
C    -5.078000000     3.983000000    -1.028000000
H    -4.135000000     4.434000000    -0.728000000
C    -1.033000000     2.139000000    -0.401000000
H    -1.680000000     2.986000000    -0.616000000
C    -1.572000000     0.843000000    -0.490000000
H    -2.630000000     0.650000000    -0.650000000
C    -0.711000000    -0.244000000    -0.398000000
H    -1.106000000    -1.234000000    -0.631000000
C     0.631000000    -0.099000000    -0.011000000
H     1.247000000    -0.988000000     0.103000000
C     1.177000000     1.199000000     0.046000000
H     2.186000000     1.475000000     0.343000000
C     0.328000000     2.315000000    -0.076000000
C     0.906000000     3.720000000     0.126000000
O     2.112000000     3.865000000     0.452000000
O     0.127000000     4.630000000     0.075000000
O     6.716000000     5.634000000     1.375000000
H     6.853000000     5.865000000     2.293000000
H     5.766000000     5.559000000     1.285000000
O    -0.174000000     7.569000000    -2.692000000
H    -0.074000000     7.898000000    -3.585000000
H     0.711000000     7.317000000    -2.429000000
O     0.513000000     7.407000000     3.807000000
H     0.977000000     8.181000000     4.127000000
H     0.552000000     6.787000000     4.535000000
O     1.358000000     6.906000000     1.192000000
H     0.957000000     6.045000000     1.074000000
H     1.222000000     7.110000000     2.117000000
O     4.817000000     7.413000000    -1.201000000
H     4.106000000     8.044000000    -1.312000000
H     4.506000000     6.820000000    -0.516000000
O     2.949000000     3.609000000     3.079000000
H     3.162000000     2.698000000     3.283000000
H     2.614000000     3.582000000     2.183000000
O    -0.377000000     7.006000000    -5.300000000
H    -1.116000000     7.019000000    -5.908000000
H    -0.513000000     6.217000000    -4.775000000
O    -1.822000000     5.269000000     2.362000000
H    -2.537000000     5.583000000     1.809000000
H    -1.179000000     4.917000000     1.746000000
O    -1.931000000     8.527000000     3.351000000
H    -2.001000000     8.496000000     2.397000000
H    -1.142000000     8.023000000     3.550000000
O    -0.868000000     1.023000000     2.628000000
H    -1.714000000     1.312000000     2.286000000
H    -0.229000000     1.355000000     1.998000000
O     3.190000000     5.551000000     5.313000000
H     3.214000000     4.941000000     4.576000000
H     3.424000000     6.397000000     4.932000000
O    -1.484000000     8.156000000     0.691000000
H    -1.703000000     8.704000000    -0.063000000
H    -1.492000000     7.262000000     0.347000000
O     2.216000000     6.412000000    -1.801000000
H     2.836000000     5.930000000    -2.349000000
H     2.071000000     5.843000000    -1.045000000
O     2.157000000     9.288000000    -1.581000000
H     1.930000000     8.359000000    -1.634000000
H     1.737000000     9.592000000    -0.777000000
O    -4.112000000     7.147000000    -2.072000000
H    -3.282000000     6.688000000    -1.944000000
H    -3.905000000     7.849000000    -2.689000000
O     3.818000000     5.961000000     1.082000000
H     3.393000000     5.108000000     0.990000000
H     3.094000000     6.585000000     1.133000000
O     0.968000000     9.681000000     1.227000000
H     0.341000000    10.272000000     1.645000000
H     0.526000000     8.833000000     1.213000000
O    -4.663000000     6.042000000     1.653000000
H    -5.104000000     5.200000000     1.539000000
H    -5.169000000     6.651000000     1.114000000
O    -1.634000000     5.407000000    -1.981000000
H    -1.058000000     6.064000000    -2.373000000
H    -1.113000000     5.022000000    -1.276000000
