215
-1467.78702
C     3.922000000    -0.405000000     3.944000000
H     4.783000000    -0.811000000     3.420000000
C     2.675000000    -0.953000000     3.911000000
C     1.610000000    -0.461000000     4.689000000
H     0.631000000    -0.932000000     4.684000000
C     2.296000000    -1.991000000     2.843000000
O     3.467000000    -2.662000000     2.373000000
H     1.828000000    -1.400000000     2.042000000
O     1.400000000    -2.944000000     3.442000000
C     0.374000000    -3.420000000     2.690000000
C    -0.908000000    -2.922000000     2.927000000
H    -1.061000000    -2.263000000     3.778000000
C    -1.949000000    -3.344000000     2.098000000
O    -3.187000000    -2.828000000     2.441000000
C    -1.790000000    -4.284000000     1.140000000
C    -2.922000000    -4.756000000     0.317000000
H    -2.792000000    -5.761000000    -0.090000000
C    -3.179000000    -3.758000000    -0.809000000
C    -2.617000000    -3.945000000    -2.110000000
H    -2.213000000    -4.912000000    -2.399000000
H    -3.813000000    -4.820000000     0.945000000
C    -0.566000000    -4.782000000     0.954000000
H    -0.492000000    -5.585000000     0.225000000
C     0.529000000    -4.343000000     1.645000000
C     1.884000000    -4.976000000     1.329000000
H     1.711000000    -5.898000000     0.770000000
H     2.359000000    -5.337000000     2.244000000
C     2.725000000    -4.064000000     0.475000000
C     2.645000000    -4.254000000    -0.871000000
H     2.235000000    -5.160000000    -1.311000000
C     3.494000000    -2.981000000     1.000000000
C     4.305000000    -2.168000000     0.183000000
H     4.929000000    -1.366000000     0.569000000
C     4.069000000    -2.238000000    -1.210000000
O     4.514000000    -1.175000000    -1.947000000
C     3.481000000    -0.187000000    -2.217000000
C     3.890000000     1.306000000    -1.912000000
C     3.436000000     2.386000000    -2.705000000
H     2.655000000     2.118000000    -3.411000000
C     4.800000000     1.590000000    -0.863000000
H     5.143000000     0.851000000    -0.143000000
O     3.168000000    -0.497000000    -3.585000000
H     2.598000000    -0.531000000    -1.658000000
C     3.237000000    -3.250000000    -1.722000000
C     3.083000000    -3.386000000    -3.241000000
H     2.945000000    -4.436000000    -3.508000000
H     4.020000000    -3.039000000    -3.680000000
C     1.884000000    -2.580000000    -3.731000000
C     0.636000000    -3.140000000    -3.884000000
H     0.593000000    -4.158000000    -3.505000000
C     1.966000000    -1.172000000    -3.935000000
C     0.890000000    -0.418000000    -4.343000000
H     0.988000000     0.614000000    -4.670000000
C    -0.346000000    -1.024000000    -4.579000000
O    -1.378000000    -0.174000000    -4.908000000
C    -2.219000000     0.229000000    -3.807000000
C    -2.777000000     1.664000000    -3.897000000
C    -1.905000000     2.672000000    -4.303000000
H    -0.855000000     2.509000000    -4.531000000
C    -4.040000000     2.033000000    -3.477000000
H    -4.701000000     1.209000000    -3.218000000
O    -3.276000000    -0.781000000    -3.811000000
H    -1.668000000     0.146000000    -2.859000000
C    -0.480000000    -2.395000000    -4.314000000
C    -1.835000000    -3.125000000    -4.438000000
H    -1.797000000    -4.190000000    -4.679000000
H    -2.345000000    -2.625000000    -5.264000000
C    -2.595000000    -2.921000000    -3.103000000
C    -3.233000000    -1.734000000    -2.802000000
C    -3.920000000    -1.600000000    -1.618000000
H    -4.370000000    -0.635000000    -1.399000000
C    -3.839000000    -2.559000000    -0.578000000
O    -4.450000000    -2.316000000     0.643000000
C    -3.558000000    -1.748000000     1.640000000
H    -2.659000000    -1.409000000     1.105000000
C    -4.151000000    -0.582000000     2.348000000
C    -3.817000000    -0.406000000     3.691000000
H    -3.120000000    -1.106000000     4.144000000
C    -4.837000000     0.419000000     1.694000000
H    -5.164000000     0.324000000     0.661000000
C    -5.114000000     1.618000000     2.377000000
O    -5.865000000     2.584000000     1.693000000
C    -4.734000000     1.795000000     3.714000000
H    -4.859000000     2.796000000     4.119000000
C    -4.229000000     0.711000000     4.374000000
O    -3.883000000     0.896000000     5.694000000
C    -2.674000000     0.424000000     6.267000000
C    -1.411000000     0.992000000     6.012000000
H    -1.263000000     1.642000000     5.154000000
C    -2.764000000    -0.515000000     7.276000000
H    -3.758000000    -0.928000000     7.425000000
C    -1.661000000    -0.916000000     8.032000000
H    -1.745000000    -1.605000000     8.869000000
C    -0.409000000    -0.390000000     7.638000000
H     0.479000000    -0.668000000     8.200000000
C    -0.250000000     0.493000000     6.591000000
O     0.916000000     1.220000000     6.234000000
C     1.891000000     0.593000000     5.540000000
C     3.111000000     1.255000000     5.504000000
H     3.302000000     2.175000000     6.051000000
C     4.144000000     0.812000000     4.654000000
O     5.334000000     1.496000000     4.623000000
C     6.158000000     1.631000000     3.578000000
C     5.702000000     2.305000000     2.436000000
H     4.662000000     2.578000000     2.274000000
C     7.538000000     1.284000000     3.661000000
H     7.946000000     0.905000000     4.594000000
C     8.375000000     1.428000000     2.549000000
H     9.413000000     1.106000000     2.559000000
C     7.897000000     2.099000000     1.425000000
H     8.594000000     2.271000000     0.609000000
C     6.571000000     2.598000000     1.373000000
O     6.180000000     3.299000000     0.291000000
C     5.243000000     2.979000000    -0.660000000
C     4.697000000     3.996000000    -1.464000000
H     5.085000000     5.007000000    -1.369000000
C     3.836000000     3.727000000    -2.476000000
O     3.256000000     4.787000000    -3.135000000
C     2.333000000     4.578000000    -4.092000000
C     1.007000000     4.694000000    -3.731000000
H     0.795000000     4.783000000    -2.669000000
C     2.689000000     4.442000000    -5.463000000
H     3.739000000     4.445000000    -5.743000000
C     1.740000000     4.372000000    -6.448000000
H     1.799000000     4.517000000    -7.524000000
C     0.428000000     4.541000000    -6.073000000
H    -0.331000000     4.645000000    -6.844000000
C     0.048000000     4.779000000    -4.758000000
O    -1.262000000     4.983000000    -4.415000000
C    -2.254000000     4.018000000    -4.173000000
C    -3.522000000     4.402000000    -3.682000000
H    -3.841000000     5.419000000    -3.472000000
C    -4.409000000     3.406000000    -3.370000000
O    -5.699000000     3.715000000    -2.977000000
C    -6.353000000     3.136000000    -1.900000000
C    -7.365000000     2.205000000    -2.111000000
H    -7.611000000     1.960000000    -3.141000000
C    -7.883000000     1.475000000    -1.021000000
H    -8.647000000     0.716000000    -1.164000000
C    -7.311000000     1.579000000     0.255000000
H    -7.593000000     0.837000000     0.997000000
C    -6.334000000     2.509000000     0.449000000
C    -5.843000000     3.297000000    -0.616000000
H    -4.980000000     3.949000000    -0.508000000
C    -1.740000000     2.468000000    -0.460000000
H    -2.800000000     2.593000000    -0.666000000
C    -1.126000000     1.207000000    -0.191000000
H    -1.715000000     0.294000000    -0.217000000
C     0.236000000     1.019000000    -0.010000000
H     0.608000000    -0.043000000     0.126000000
C     1.087000000     2.147000000    -0.084000000
H     2.147000000     2.081000000     0.147000000
C     0.484000000     3.370000000    -0.357000000
H     1.143000000     4.230000000    -0.271000000
C    -0.919000000     3.538000000    -0.516000000
C    -1.553000000     4.895000000    -0.657000000
O    -0.811000000     5.855000000    -0.688000000
O    -2.750000000     5.108000000    -0.548000000
O    -0.425000000     7.070000000     5.574000000
H    -0.772000000     7.174000000     4.688000000
H     0.092000000     6.265000000     5.535000000
O     0.473000000     9.899000000    -0.446000000
H     0.260000000     9.121000000    -0.962000000
H     1.396000000    10.068000000    -0.637000000
O    -1.916000000     8.413000000    -0.295000000
H    -1.585000000     7.515000000    -0.316000000
H    -2.572000000     8.443000000    -0.992000000
O     3.062000000     7.052000000     0.482000000
H     2.511000000     7.412000000    -0.213000000
H     3.917000000     7.460000000     0.344000000
O     1.365000000     4.143000000     2.923000000
H     0.701000000     3.575000000     2.532000000
H     1.345000000     4.937000000     2.389000000
O    -1.438000000     7.483000000    -3.827000000
H    -2.186000000     7.814000000    -3.329000000
H    -1.603000000     6.544000000    -3.911000000
O    -3.393000000     5.630000000     1.959000000
H    -3.154000000     5.272000000     1.103000000
H    -4.349000000     5.676000000     1.941000000
O    -1.354000000     7.546000000     3.056000000
H    -0.781000000     7.183000000     2.381000000
H    -2.224000000     7.209000000     2.838000000
O    -4.419000000     6.752000000    -6.564000000
H    -3.912000000     6.822000000    -5.755000000
H    -5.299000000     7.039000000    -6.321000000
O    -1.734000000     3.818000000     3.506000000
H    -2.097000000     4.704000000     3.504000000
H    -1.827000000     3.518000000     2.601000000
O    -2.594000000    11.179000000    -0.732000000
H    -2.350000000    10.268000000    -0.892000000
H    -2.438000000    11.308000000     0.203000000
O     0.934000000     7.640000000    -1.910000000
H     0.430000000     6.924000000    -1.522000000
H     0.413000000     7.918000000    -2.664000000
O    -3.665000000     8.369000000    -2.315000000
H    -4.436000000     7.827000000    -2.149000000
H    -3.982000000     9.068000000    -2.886000000
O     1.506000000     7.682000000    -5.264000000
H     0.665000000     7.562000000    -4.823000000
H     1.759000000     6.802000000    -5.542000000
O     0.702000000     6.181000000     1.434000000
H     0.105000000     6.135000000     0.688000000
H     1.464000000     6.655000000     1.102000000
O    -5.854000000     6.930000000     1.558000000
H    -5.417000000     7.666000000     1.986000000
H    -6.526000000     6.655000000     2.182000000
O    -7.420000000     6.540000000    -2.613000000
H    -7.244000000     6.291000000    -3.521000000
H    -6.612000000     6.330000000    -2.146000000
O    -5.040000000     6.318000000    -1.043000000
H    -5.397000000     6.440000000    -0.163000000
H    -4.170000000     5.945000000    -0.899000000
O    -4.481000000     9.604000000     1.466000000
H    -5.013000000     9.839000000     0.705000000
H    -3.671000000     9.256000000     1.093000000
