215
-1442.19757
C     2.746000000    -0.170000000     4.742000000
H     3.557000000    -0.417000000     4.061000000
C     1.486000000    -0.827000000     4.709000000
C     0.417000000    -0.321000000     5.499000000
H    -0.593000000    -0.711000000     5.399000000
C     1.325000000    -2.017000000     3.713000000
O     2.588000000    -2.799000000     3.578000000
H     1.066000000    -1.599000000     2.729000000
O     0.191000000    -2.856000000     4.188000000
C    -0.748000000    -3.353000000     3.333000000
C    -1.818000000    -2.544000000     3.170000000
H    -1.917000000    -1.677000000     3.817000000
C    -2.722000000    -2.734000000     2.143000000
O    -3.764000000    -1.857000000     2.076000000
C    -2.526000000    -3.836000000     1.250000000
C    -3.506000000    -4.243000000     0.202000000
H    -3.510000000    -5.314000000    -0.013000000
C    -3.358000000    -3.455000000    -1.090000000
C    -2.496000000    -3.909000000    -2.098000000
H    -1.974000000    -4.855000000    -1.977000000
H    -4.510000000    -4.027000000     0.575000000
C    -1.385000000    -4.614000000     1.390000000
H    -1.259000000    -5.437000000     0.692000000
C    -0.439000000    -4.328000000     2.397000000
C     0.917000000    -5.055000000     2.490000000
H     0.734000000    -6.041000000     2.059000000
H     1.244000000    -5.278000000     3.507000000
C     1.999000000    -4.257000000     1.770000000
C     2.259000000    -4.557000000     0.445000000
H     1.737000000    -5.397000000    -0.005000000
C     2.822000000    -3.230000000     2.294000000
C     3.778000000    -2.529000000     1.507000000
H     4.439000000    -1.760000000     1.897000000
C     3.779000000    -2.755000000     0.123000000
O     4.548000000    -1.924000000    -0.651000000
C     3.948000000    -0.956000000    -1.479000000
C     4.679000000     0.397000000    -1.394000000
C     4.992000000     1.064000000    -2.573000000
H     4.796000000     0.576000000    -3.525000000
C     4.868000000     1.054000000    -0.137000000
H     4.567000000     0.590000000     0.799000000
O     3.903000000    -1.506000000    -2.758000000
H     2.958000000    -0.747000000    -1.048000000
C     3.067000000    -3.833000000    -0.417000000
C     3.258000000    -4.228000000    -1.862000000
H     2.945000000    -5.259000000    -2.041000000
H     4.313000000    -4.197000000    -2.142000000
C     2.406000000    -3.350000000    -2.731000000
C     1.159000000    -3.780000000    -3.121000000
H     0.719000000    -4.712000000    -2.776000000
C     2.733000000    -2.105000000    -3.175000000
C     1.943000000    -1.244000000    -3.938000000
H     2.207000000    -0.203000000    -4.106000000
C     0.720000000    -1.741000000    -4.308000000
O    -0.165000000    -0.850000000    -4.934000000
C    -1.089000000    -0.274000000    -4.026000000
C    -1.271000000     1.247000000    -4.217000000
C    -0.161000000     2.031000000    -3.985000000
H     0.809000000     1.581000000    -3.790000000
C    -2.554000000     1.790000000    -4.369000000
H    -3.440000000     1.162000000    -4.353000000
O    -2.329000000    -0.895000000    -4.192000000
H    -0.778000000    -0.489000000    -2.993000000
C     0.329000000    -3.008000000    -3.897000000
C    -1.067000000    -3.500000000    -4.194000000
H    -1.071000000    -4.589000000    -4.273000000
H    -1.402000000    -3.132000000    -5.166000000
C    -2.173000000    -3.079000000    -3.174000000
C    -2.761000000    -1.847000000    -3.310000000
C    -3.496000000    -1.404000000    -2.272000000
H    -3.768000000    -0.352000000    -2.288000000
C    -3.807000000    -2.142000000    -1.174000000
O    -4.503000000    -1.593000000    -0.096000000
C    -3.769000000    -0.935000000     0.988000000
H    -2.779000000    -0.615000000     0.630000000
C    -4.389000000     0.416000000     1.373000000
C    -4.091000000     0.992000000     2.584000000
H    -3.485000000     0.427000000     3.288000000
C    -5.177000000     1.197000000     0.526000000
H    -5.558000000     0.880000000    -0.442000000
C    -5.610000000     2.481000000     0.852000000
O    -6.382000000     3.329000000     0.048000000
C    -5.295000000     2.998000000     2.079000000
H    -5.672000000     3.963000000     2.408000000
C    -4.607000000     2.191000000     2.987000000
O    -4.154000000     2.787000000     4.167000000
C    -3.558000000     2.027000000     5.142000000
C    -2.212000000     2.140000000     5.573000000
H    -1.517000000     2.885000000     5.195000000
C    -4.373000000     0.964000000     5.652000000
H    -5.383000000     0.781000000     5.296000000
C    -3.846000000     0.137000000     6.647000000
H    -4.412000000    -0.698000000     7.053000000
C    -2.484000000     0.345000000     7.107000000
H    -1.948000000    -0.151000000     7.911000000
C    -1.693000000     1.320000000     6.544000000
O    -0.354000000     1.427000000     6.938000000
C     0.609000000     0.849000000     6.144000000
C     1.816000000     1.496000000     6.104000000
H     1.967000000     2.345000000     6.766000000
C     2.891000000     1.013000000     5.424000000
O     3.992000000     1.780000000     5.441000000
C     4.857000000     1.807000000     4.385000000
C     4.643000000     2.542000000     3.218000000
H     3.694000000     2.999000000     2.949000000
C     6.126000000     1.215000000     4.667000000
H     6.377000000     0.909000000     5.680000000
C     7.205000000     1.364000000     3.724000000
H     8.195000000     0.934000000     3.855000000
C     6.926000000     2.059000000     2.557000000
H     7.751000000     2.151000000     1.855000000
C     5.700000000     2.587000000     2.330000000
O     5.471000000     3.066000000     1.033000000
C     5.319000000     2.385000000    -0.148000000
C     5.575000000     2.985000000    -1.367000000
H     5.980000000     3.990000000    -1.288000000
C     5.436000000     2.376000000    -2.612000000
O     5.420000000     3.058000000    -3.747000000
C     4.226000000     3.281000000    -4.398000000
C     2.983000000     3.573000000    -3.829000000
H     2.955000000     3.472000000    -2.747000000
C     4.273000000     2.996000000    -5.780000000
H     5.264000000     2.743000000    -6.148000000
C     3.236000000     3.171000000    -6.586000000
H     3.325000000     2.990000000    -7.654000000
C     2.018000000     3.702000000    -6.021000000
H     1.221000000     3.836000000    -6.748000000
C     1.928000000     3.901000000    -4.662000000
O     0.751000000     4.266000000    -4.099000000
C    -0.331000000     3.396000000    -4.086000000
C    -1.644000000     3.907000000    -4.152000000
H    -1.742000000     4.984000000    -4.262000000
C    -2.788000000     3.111000000    -4.125000000
O    -4.093000000     3.615000000    -4.233000000
C    -5.149000000     3.258000000    -3.425000000
C    -6.331000000     3.200000000    -4.100000000
H    -6.404000000     3.222000000    -5.184000000
C    -7.529000000     3.135000000    -3.350000000
H    -8.410000000     2.936000000    -3.955000000
C    -7.544000000     3.213000000    -1.982000000
H    -8.483000000     3.058000000    -1.456000000
C    -6.304000000     3.350000000    -1.302000000
C    -5.138000000     3.255000000    -2.064000000
H    -4.155000000     3.491000000    -1.663000000
C    -0.868000000     2.081000000    -0.972000000
H    -1.821000000     2.460000000    -1.332000000
C    -0.697000000     0.695000000    -0.709000000
H    -1.421000000    -0.074000000    -0.966000000
C     0.375000000     0.194000000     0.034000000
H     0.369000000    -0.771000000     0.384000000
C     1.324000000     1.110000000     0.503000000
H     2.166000000     0.699000000     1.055000000
C     1.275000000     2.482000000     0.196000000
H     2.006000000     3.182000000     0.590000000
C     0.164000000     2.977000000    -0.600000000
C     0.059000000     4.492000000    -0.720000000
O     1.016000000     5.177000000    -0.614000000
O    -0.984000000     4.989000000    -1.030000000
O    -0.579000000     7.036000000     4.823000000
H    -1.036000000     6.342000000     4.348000000
H    -0.749000000     7.827000000     4.312000000
O    -1.491000000     8.656000000     2.779000000
H    -1.540000000     8.026000000     2.060000000
H    -2.228000000     9.248000000     2.629000000
O    -3.348000000     8.768000000    -1.181000000
H    -4.027000000     9.324000000    -0.798000000
H    -2.965000000     9.301000000    -1.877000000
O    -2.115000000     4.761000000     3.730000000
H    -2.926000000     4.898000000     3.240000000
H    -1.594000000     4.181000000     3.174000000
O     1.749000000     7.851000000    -1.470000000
H     1.814000000     6.906000000    -1.332000000
H     0.917000000     7.970000000    -1.926000000
O     0.922000000     9.524000000     0.505000000
H     0.450000000     8.691000000     0.497000000
H     1.806000000     9.300000000     0.214000000
O     1.058000000     4.952000000     2.173000000
H     0.654000000     4.088000000     2.102000000
H     0.831000000     5.392000000     1.354000000
O     0.709000000     7.122000000    -6.487000000
H    -0.128000000     6.720000000    -6.252000000
H     0.923000000     6.748000000    -7.342000000
O    -2.801000000     4.470000000     0.821000000
H    -2.298000000     4.547000000     0.010000000
H    -3.554000000     5.047000000     0.691000000
O     1.917000000     5.222000000     4.840000000
H     1.769000000     5.128000000     3.899000000
H     1.143000000     5.687000000     5.159000000
O    -1.091000000     7.592000000     0.170000000
H    -1.681000000     8.127000000    -0.360000000
H    -1.028000000     6.763000000    -0.304000000
O    -1.169000000     2.508000000     2.252000000
H    -0.683000000     1.963000000     1.633000000
H    -1.965000000     2.755000000     1.780000000
O    -4.393000000     6.497000000    -2.772000000
H    -3.826000000     6.049000000    -3.400000000
H    -3.826000000     7.148000000    -2.359000000
O     4.772000000     6.305000000    -1.780000000
H     4.414000000     5.868000000    -1.007000000
H     4.044000000     6.328000000    -2.401000000
O     2.280000000     7.711000000    -4.129000000
H     1.606000000     7.836000000    -4.798000000
H     1.820000000     7.838000000    -3.299000000
O     3.995000000     8.869000000    -0.530000000
H     4.756000000     8.297000000    -0.632000000
H     3.265000000     8.362000000    -0.886000000
O     3.367000000     5.719000000     0.486000000
H     2.506000000     5.368000000     0.260000000
H     3.306000000     5.923000000     1.419000000
O    -5.085000000     5.848000000     0.185000000
H    -5.701000000     5.128000000     0.051000000
H    -4.885000000     6.160000000    -0.697000000
O    -0.715000000     7.066000000    -2.541000000
H    -0.518000000     6.741000000    -3.419000000
H    -0.998000000     6.291000000    -2.056000000
