215
-1458.67313
C     3.279000000     0.138000000     4.454000000
H     4.118000000    -0.159000000     3.830000000
C     2.084000000    -0.595000000     4.424000000
C     1.142000000    -0.244000000     5.388000000
H     0.270000000    -0.869000000     5.560000000
C     1.925000000    -1.800000000     3.498000000
O     3.140000000    -2.494000000     3.106000000
H     1.479000000    -1.307000000     2.622000000
O     1.015000000    -2.756000000     3.985000000
C     0.039000000    -3.385000000     3.196000000
C    -1.259000000    -2.972000000     3.317000000
H    -1.542000000    -2.305000000     4.127000000
C    -2.217000000    -3.339000000     2.436000000
O    -3.399000000    -2.644000000     2.517000000
C    -1.907000000    -4.243000000     1.455000000
C    -2.989000000    -4.814000000     0.520000000
H    -2.705000000    -5.833000000     0.249000000
C    -3.019000000    -3.972000000    -0.720000000
C    -2.220000000    -4.237000000    -1.816000000
H    -1.439000000    -4.991000000    -1.757000000
H    -3.943000000    -5.014000000     1.012000000
C    -0.565000000    -4.742000000     1.347000000
H    -0.265000000    -5.534000000     0.665000000
C     0.377000000    -4.345000000     2.238000000
C     1.783000000    -4.801000000     2.036000000
H     1.803000000    -5.845000000     1.718000000
H     2.203000000    -4.903000000     3.039000000
C     2.650000000    -3.834000000     1.179000000
C     2.763000000    -3.991000000    -0.194000000
H     2.405000000    -4.874000000    -0.716000000
C     3.292000000    -2.762000000     1.813000000
C     4.046000000    -1.845000000     1.079000000
H     4.483000000    -0.930000000     1.471000000
C     4.042000000    -2.002000000    -0.285000000
O     4.527000000    -0.973000000    -1.000000000
C     3.591000000    -0.225000000    -1.792000000
C     4.001000000     1.218000000    -1.767000000
C     3.592000000     2.033000000    -2.826000000
H     3.080000000     1.659000000    -3.709000000
C     4.436000000     1.735000000    -0.606000000
H     4.628000000     1.079000000     0.239000000
O     3.471000000    -0.642000000    -3.161000000
H     2.633000000    -0.289000000    -1.255000000
C     3.488000000    -3.080000000    -0.946000000
C     3.570000000    -3.310000000    -2.418000000
H     3.734000000    -4.385000000    -2.514000000
H     4.452000000    -2.857000000    -2.877000000
C     2.333000000    -2.765000000    -3.141000000
C     1.212000000    -3.457000000    -3.283000000
H     1.252000000    -4.450000000    -2.842000000
C     2.481000000    -1.476000000    -3.589000000
C     1.448000000    -0.949000000    -4.329000000
H     1.546000000     0.088000000    -4.641000000
C     0.272000000    -1.662000000    -4.484000000
O    -0.828000000    -0.906000000    -4.920000000
C    -1.648000000    -0.383000000    -3.865000000
C    -2.102000000     1.060000000    -4.141000000
C    -1.216000000     1.955000000    -4.632000000
H    -0.207000000     1.706000000    -4.951000000
C    -3.363000000     1.433000000    -3.905000000
H    -4.139000000     0.724000000    -3.627000000
O    -2.812000000    -1.238000000    -3.858000000
H    -0.952000000    -0.372000000    -3.013000000
C     0.073000000    -2.892000000    -3.885000000
C    -1.172000000    -3.704000000    -4.019000000
H    -0.862000000    -4.752000000    -4.007000000
H    -1.634000000    -3.550000000    -4.996000000
C    -2.136000000    -3.380000000    -2.885000000
C    -2.953000000    -2.225000000    -2.906000000
C    -3.839000000    -1.960000000    -1.864000000
H    -4.429000000    -1.050000000    -1.793000000
C    -3.799000000    -2.790000000    -0.740000000
O    -4.430000000    -2.340000000     0.413000000
C    -3.567000000    -1.721000000     1.399000000
H    -2.616000000    -1.491000000     0.897000000
C    -4.116000000    -0.358000000     2.005000000
C    -3.769000000     0.046000000     3.275000000
H    -3.179000000    -0.613000000     3.906000000
C    -4.768000000     0.515000000     1.168000000
H    -5.132000000     0.198000000     0.194000000
C    -5.104000000     1.760000000     1.670000000
O    -5.749000000     2.666000000     0.919000000
C    -4.818000000     2.145000000     2.984000000
H    -4.889000000     3.193000000     3.264000000
C    -4.095000000     1.311000000     3.779000000
O    -3.609000000     1.884000000     4.982000000
C    -2.868000000     1.157000000     5.796000000
C    -1.575000000     1.569000000     6.052000000
H    -1.100000000     2.346000000     5.458000000
C    -3.570000000     0.263000000     6.657000000
H    -4.607000000     0.049000000     6.411000000
C    -2.872000000    -0.332000000     7.676000000
H    -3.242000000    -1.282000000     8.055000000
C    -1.493000000    -0.028000000     7.899000000
H    -0.845000000    -0.600000000     8.558000000
C    -0.909000000     0.938000000     7.095000000
O     0.418000000     1.117000000     7.267000000
C     1.277000000     0.862000000     6.173000000
C     2.409000000     1.631000000     6.120000000
H     2.552000000     2.532000000     6.711000000
C     3.377000000     1.318000000     5.215000000
O     4.543000000     2.055000000     5.041000000
C     5.340000000     2.138000000     3.894000000
C     4.913000000     2.824000000     2.721000000
H     3.902000000     3.203000000     2.595000000
C     6.681000000     1.646000000     3.935000000
H     7.008000000     1.014000000     4.757000000
C     7.583000000     1.882000000     2.860000000
H     8.569000000     1.425000000     2.859000000
C     7.104000000     2.629000000     1.790000000
H     7.758000000     2.991000000     1.001000000
C     5.761000000     2.943000000     1.672000000
O     5.306000000     3.649000000     0.586000000
C     4.728000000     3.090000000    -0.534000000
C     4.443000000     3.920000000    -1.664000000
H     4.641000000     4.987000000    -1.614000000
C     3.890000000     3.372000000    -2.818000000
O     3.672000000     4.297000000    -3.895000000
C     2.816000000     4.023000000    -4.907000000
C     1.432000000     4.279000000    -4.667000000
H     1.162000000     4.561000000    -3.653000000
C     3.344000000     3.798000000    -6.203000000
H     4.416000000     3.656000000    -6.304000000
C     2.442000000     3.724000000    -7.280000000
H     2.882000000     3.746000000    -8.274000000
C     1.052000000     3.827000000    -7.015000000
H     0.306000000     3.647000000    -7.785000000
C     0.535000000     4.050000000    -5.749000000
O    -0.804000000     4.160000000    -5.597000000
C    -1.586000000     3.256000000    -4.950000000
C    -2.880000000     3.655000000    -4.709000000
H    -3.150000000     4.695000000    -4.879000000
C    -3.742000000     2.778000000    -4.069000000
O    -4.994000000     3.289000000    -3.695000000
C    -5.766000000     2.804000000    -2.729000000
C    -7.174000000     2.642000000    -2.923000000
H    -7.545000000     2.724000000    -3.942000000
C    -8.038000000     2.360000000    -1.919000000
H    -9.089000000     2.238000000    -2.167000000
C    -7.492000000     2.263000000    -0.672000000
H    -8.107000000     1.967000000     0.174000000
C    -6.154000000     2.504000000    -0.388000000
C    -5.259000000     2.791000000    -1.450000000
H    -4.207000000     3.029000000    -1.319000000
C    -1.058000000     1.987000000    -0.772000000
H    -2.013000000     2.213000000    -1.240000000
C    -0.782000000     0.734000000    -0.268000000
H    -1.481000000    -0.098000000    -0.318000000
C     0.453000000     0.548000000     0.350000000
H     0.641000000    -0.484000000     0.767000000
C     1.346000000     1.585000000     0.532000000
H     2.253000000     1.415000000     1.106000000
C     1.094000000     2.856000000    -0.055000000
H     1.839000000     3.642000000    -0.151000000
C    -0.090000000     3.019000000    -0.711000000
C    -0.504000000     4.374000000    -1.198000000
O     0.113000000     5.340000000    -0.829000000
O    -1.554000000     4.545000000    -1.788000000
O    -1.565000000     7.952000000     2.642000000
H    -0.838000000     7.364000000     2.436000000
H    -1.428000000     8.191000000     3.558000000
O     4.731000000     7.011000000    -3.736000000
H     4.524000000     6.109000000    -3.982000000
H     3.971000000     7.518000000    -4.020000000
O    -1.616000000     7.598000000    -1.053000000
H    -1.509000000     7.652000000    -2.003000000
H    -1.285000000     6.729000000    -0.824000000
O     2.086000000     8.402000000     0.862000000
H     2.034000000     8.529000000    -0.085000000
H     2.665000000     9.100000000     1.167000000
O     2.753000000     7.021000000     3.482000000
H     2.544000000     7.034000000     2.548000000
H     2.185000000     7.689000000     3.864000000
O     1.373000000     3.625000000     2.864000000
H     0.540000000     3.210000000     2.640000000
H     1.524000000     4.256000000     2.160000000
O    -0.489000000     6.616000000    -3.651000000
H    -0.985000000     6.439000000    -4.450000000
H    -0.706000000     5.889000000    -3.067000000
O    -3.129000000     4.833000000     0.822000000
H    -2.493000000     4.721000000     0.116000000
H    -3.974000000     4.635000000     0.418000000
O    -3.838000000     6.448000000     2.750000000
H    -3.438000000     5.862000000     2.107000000
H    -3.263000000     7.212000000     2.769000000
O    -1.536000000     3.398000000     2.846000000
H    -1.905000000     4.106000000     2.319000000
H    -2.286000000     2.846000000     3.066000000
O     1.945000000     7.465000000    -2.040000000
H     1.627000000     6.683000000    -1.588000000
H     1.461000000     7.477000000    -2.866000000
O    -0.698000000     5.595000000     4.113000000
H    -0.110000000     5.784000000     3.382000000
H    -1.183000000     4.818000000     3.836000000
O    -5.340000000     8.009000000    -4.296000000
H    -4.906000000     7.377000000    -3.723000000
H    -4.659000000     8.648000000    -4.507000000
O     1.387000000     8.309000000    -4.949000000
H     0.759000000     7.588000000    -4.902000000
H     1.664000000     8.325000000    -5.866000000
O     0.644000000     6.247000000     1.648000000
H     0.341000000     6.059000000     0.760000000
H     1.253000000     6.978000000     1.543000000
O     4.008000000     9.263000000    -2.163000000
H     4.593000000     8.869000000    -2.810000000
H     3.192000000     8.769000000    -2.247000000
O    -1.622000000     9.890000000     0.146000000
H    -1.674000000     9.002000000    -0.208000000
H    -1.648000000     9.771000000     1.095000000
O    -5.671000000     5.721000000    -0.022000000
H    -5.913000000     6.467000000    -0.571000000
H    -6.502000000     5.283000000     0.165000000
O    -3.952000000     5.915000000    -2.627000000
H    -4.216000000     6.030000000    -1.714000000
H    -3.192000000     5.335000000    -2.586000000
