215
-1472.10733
C    -2.004000000    -1.647000000    -4.424000000
H    -1.244000000    -2.366000000    -4.129000000
C    -1.572000000    -0.320000000    -4.513000000
C    -2.521000000     0.669000000    -4.712000000
H    -2.273000000     1.713000000    -4.882000000
C    -0.111000000    -0.025000000    -4.432000000
O     0.689000000    -1.026000000    -4.993000000
H     0.061000000     0.108000000    -3.354000000
O     0.323000000     1.284000000    -4.999000000
C     1.055000000     2.092000000    -4.152000000
C     0.437000000     3.103000000    -3.431000000
H    -0.602000000     3.400000000    -3.547000000
C     1.137000000     3.820000000    -2.449000000
O     0.478000000     4.644000000    -1.636000000
C     2.456000000     3.570000000    -2.226000000
C     3.276000000     4.351000000    -1.232000000
H     4.312000000     4.523000000    -1.532000000
C     3.263000000     3.655000000     0.160000000
C     4.185000000     2.683000000     0.548000000
H     5.151000000     2.568000000     0.062000000
H     2.967000000     5.390000000    -1.097000000
C     3.166000000     2.587000000    -3.037000000
H     4.167000000     2.234000000    -2.803000000
C     2.429000000     1.838000000    -3.896000000
C     3.108000000     0.710000000    -4.628000000
H     4.155000000     0.963000000    -4.808000000
H     2.598000000     0.678000000    -5.593000000
C     2.949000000    -0.599000000    -3.929000000
C     3.899000000    -1.093000000    -2.979000000
H     4.825000000    -0.555000000    -2.793000000
C     1.748000000    -1.359000000    -4.107000000
C     1.559000000    -2.510000000    -3.332000000
H     0.659000000    -3.101000000    -3.479000000
C     2.524000000    -3.012000000    -2.472000000
O     2.231000000    -4.105000000    -1.714000000
C     1.843000000    -3.863000000    -0.321000000
C     0.606000000    -4.703000000     0.032000000
C    -0.042000000    -4.539000000     1.303000000
H     0.375000000    -3.853000000     2.036000000
C    -0.061000000    -5.487000000    -0.903000000
H     0.377000000    -5.725000000    -1.869000000
O     2.913000000    -4.118000000     0.581000000
H     1.504000000    -2.816000000    -0.317000000
C     3.684000000    -2.243000000    -2.249000000
C     4.671000000    -2.778000000    -1.232000000
H     5.693000000    -2.438000000    -1.412000000
H     4.693000000    -3.868000000    -1.292000000
C     4.283000000    -2.242000000     0.102000000
C     4.861000000    -1.023000000     0.520000000
H     5.557000000    -0.432000000    -0.070000000
C     3.477000000    -2.968000000     1.008000000
C     3.200000000    -2.488000000     2.258000000
H     2.505000000    -2.996000000     2.921000000
C     3.635000000    -1.199000000     2.621000000
O     3.185000000    -0.577000000     3.695000000
C     2.044000000     0.315000000     3.576000000
C     0.853000000     0.062000000     4.547000000
C     0.674000000    -1.147000000     5.176000000
H     1.246000000    -2.032000000     4.910000000
C    -0.056000000     1.108000000     4.800000000
H     0.203000000     2.057000000     4.340000000
O     2.590000000     1.600000000     3.671000000
H     1.644000000     0.239000000     2.555000000
C     4.549000000    -0.507000000     1.782000000
C     4.996000000     0.911000000     2.094000000
H     5.945000000     1.064000000     1.576000000
H     5.192000000     0.979000000     3.166000000
C     4.004000000     1.967000000     1.731000000
C     2.931000000     2.284000000     2.477000000
C     2.017000000     3.269000000     2.195000000
H     1.192000000     3.399000000     2.890000000
C     2.198000000     3.948000000     0.967000000
O     1.190000000     4.737000000     0.560000000
C     0.216000000     4.215000000    -0.316000000
H     0.298000000     3.118000000    -0.309000000
C    -1.172000000     4.536000000     0.157000000
C    -2.235000000     4.280000000    -0.685000000
H    -1.925000000     3.815000000    -1.617000000
C    -1.384000000     5.051000000     1.468000000
H    -0.568000000     5.183000000     2.174000000
C    -2.703000000     5.234000000     1.916000000
O    -2.892000000     5.747000000     3.202000000
C    -3.805000000     4.925000000     1.063000000
H    -4.814000000     5.249000000     1.307000000
C    -3.560000000     4.549000000    -0.287000000
O    -4.656000000     4.372000000    -1.120000000
C    -4.560000000     4.102000000    -2.448000000
C    -4.786000000     2.798000000    -2.964000000
H    -5.071000000     1.903000000    -2.415000000
C    -4.129000000     5.118000000    -3.312000000
H    -3.826000000     6.093000000    -2.937000000
C    -4.015000000     4.872000000    -4.717000000
H    -3.713000000     5.644000000    -5.420000000
C    -4.282000000     3.632000000    -5.236000000
H    -4.210000000     3.617000000    -6.320000000
C    -4.576000000     2.622000000    -4.373000000
O    -4.848000000     1.356000000    -4.804000000
C    -3.892000000     0.325000000    -4.616000000
C    -4.359000000    -0.991000000    -4.487000000
H    -5.397000000    -1.309000000    -4.421000000
C    -3.369000000    -1.949000000    -4.338000000
O    -3.775000000    -3.238000000    -4.008000000
C    -3.086000000    -4.412000000    -4.015000000
C    -3.034000000    -5.094000000    -2.856000000
H    -3.456000000    -4.752000000    -1.914000000
C    -2.265000000    -4.773000000    -5.108000000
H    -2.290000000    -4.178000000    -6.017000000
C    -1.373000000    -5.834000000    -5.102000000
H    -0.831000000    -6.203000000    -5.969000000
C    -1.329000000    -6.604000000    -3.926000000
H    -0.674000000    -7.467000000    -3.839000000
C    -2.121000000    -6.196000000    -2.824000000
O    -1.897000000    -6.781000000    -1.648000000
C    -1.298000000    -6.061000000    -0.683000000
C    -1.922000000    -5.914000000     0.548000000
H    -2.900000000    -6.333000000     0.771000000
C    -1.315000000    -5.093000000     1.515000000
O    -1.963000000    -4.833000000     2.744000000
C    -1.398000000    -4.829000000     4.035000000
C    -1.287000000    -3.634000000     4.782000000
H    -1.527000000    -2.659000000     4.368000000
C    -1.139000000    -6.028000000     4.651000000
H    -1.485000000    -6.922000000     4.139000000
C    -0.760000000    -6.064000000     5.954000000
H    -0.517000000    -7.014000000     6.423000000
C    -0.542000000    -4.901000000     6.667000000
H     0.027000000    -4.900000000     7.594000000
C    -0.820000000    -3.697000000     6.033000000
O    -0.656000000    -2.537000000     6.742000000
C    -0.301000000    -1.309000000     6.180000000
C    -1.168000000    -0.234000000     6.487000000
H    -1.958000000    -0.314000000     7.229000000
C    -0.996000000     0.989000000     5.817000000
O    -1.898000000     2.037000000     6.082000000
C    -1.551000000     3.357000000     5.721000000
C    -0.733000000     4.236000000     6.491000000
H    -0.174000000     3.860000000     7.344000000
C    -0.778000000     5.618000000     6.194000000
H    -0.167000000     6.348000000     6.719000000
C    -1.487000000     6.033000000     5.063000000
H    -1.391000000     7.086000000     4.812000000
C    -2.214000000     5.202000000     4.252000000
C    -2.271000000     3.859000000     4.609000000
H    -2.901000000     3.248000000     3.968000000
C    -1.793000000    -1.557000000     0.738000000
H    -2.079000000    -2.245000000     1.529000000
C    -0.462000000    -1.151000000     0.655000000
H     0.328000000    -1.455000000     1.337000000
C    -0.160000000    -0.127000000    -0.141000000
H     0.887000000     0.271000000    -0.146000000
C    -1.089000000     0.474000000    -0.970000000
H    -0.798000000     1.341000000    -1.556000000
C    -2.409000000     0.001000000    -1.012000000
H    -3.123000000     0.442000000    -1.703000000
C    -2.799000000    -1.071000000    -0.144000000
C    -4.211000000    -1.608000000    -0.152000000
O    -4.943000000    -1.235000000    -1.051000000
O    -4.639000000    -2.337000000     0.716000000
O    -9.143000000    -3.857000000     1.297000000
H    -9.003000000    -4.695000000     1.738000000
H    -9.104000000    -4.069000000     0.364000000
O    -7.144000000    -0.937000000     5.102000000
H    -7.458000000    -0.324000000     4.437000000
H    -7.808000000    -0.904000000     5.790000000
O    -5.017000000    -5.243000000     0.344000000
H    -5.009000000    -4.286000000     0.387000000
H    -5.019000000    -5.524000000     1.258000000
O    -7.700000000     2.585000000    -1.998000000
H    -8.270000000     2.561000000    -1.230000000
H    -7.350000000     1.696000000    -2.064000000
O    -7.126000000    -0.200000000    -2.085000000
H    -7.716000000    -0.757000000    -1.577000000
H    -6.257000000    -0.380000000    -1.726000000
O    -6.003000000    -3.373000000    -2.622000000
H    -5.749000000    -2.595000000    -2.126000000
H    -5.333000000    -3.455000000    -3.300000000
O   -10.497000000    -2.553000000    -2.868000000
H    -9.551000000    -2.590000000    -2.727000000
H   -10.593000000    -2.210000000    -3.757000000
O    -8.491000000     0.478000000     3.255000000
H    -8.709000000     0.350000000     2.332000000
H    -9.333000000     0.432000000     3.708000000
O    -4.534000000    -0.514000000     5.517000000
H    -4.294000000    -1.254000000     6.074000000
H    -5.469000000    -0.634000000     5.349000000
O    -4.674000000    -5.826000000     3.279000000
H    -3.748000000    -5.786000000     3.517000000
H    -4.999000000    -4.939000000     3.433000000
O    -7.591000000    -3.620000000    -4.950000000
H    -6.944000000    -4.269000000    -5.226000000
H    -7.593000000    -3.675000000    -3.994000000
O    -9.086000000     0.277000000     0.396000000
H    -9.754000000    -0.354000000     0.665000000
H    -8.369000000    -0.262000000     0.062000000
O    -4.545000000     1.124000000     3.329000000
H    -4.310000000     0.677000000     2.515000000
H    -4.741000000     0.416000000     3.942000000
O    -8.849000000    -0.321000000    -4.433000000
H    -8.366000000    -0.825000000    -5.088000000
H    -8.256000000    -0.271000000    -3.683000000
O    -7.339000000    -1.778000000     0.181000000
H    -6.384000000    -1.817000000     0.138000000
H    -7.592000000    -2.580000000     0.637000000
O    -7.852000000    -5.113000000    -0.897000000
H    -7.655000000    -4.309000000    -1.377000000
H    -7.024000000    -5.351000000    -0.479000000
O    -5.193000000    -3.208000000     3.161000000
H    -4.811000000    -2.500000000     3.681000000
H    -5.297000000    -2.833000000     2.287000000
O    -6.813000000     2.559000000     3.730000000
H    -7.250000000     1.708000000     3.685000000
H    -5.881000000     2.354000000     3.653000000
O    -7.556000000    -4.490000000     4.334000000
H    -7.435000000    -4.888000000     3.471000000
H    -6.881000000    -3.814000000     4.382000000
