215
-1431.22339
C     2.451000000     0.320000000     5.081000000
H     3.343000000     0.034000000     4.531000000
C     1.276000000    -0.433000000     4.922000000
C     0.155000000     0.095000000     5.615000000
H    -0.811000000    -0.372000000     5.440000000
C     1.100000000    -1.600000000     3.864000000
O     2.390000000    -2.280000000     3.691000000
H     0.798000000    -1.181000000     2.893000000
O     0.206000000    -2.610000000     4.342000000
C    -0.591000000    -3.290000000     3.424000000
C    -1.829000000    -2.704000000     3.179000000
H    -2.161000000    -1.908000000     3.841000000
C    -2.578000000    -3.085000000     2.117000000
O    -3.624000000    -2.294000000     1.855000000
C    -2.158000000    -4.047000000     1.210000000
C    -3.082000000    -4.473000000     0.035000000
H    -2.941000000    -5.522000000    -0.233000000
C    -2.806000000    -3.689000000    -1.198000000
C    -1.843000000    -4.089000000    -2.115000000
H    -1.237000000    -4.979000000    -1.967000000
H    -4.130000000    -4.337000000     0.312000000
C    -0.897000000    -4.610000000     1.435000000
H    -0.596000000    -5.366000000     0.714000000
C    -0.067000000    -4.137000000     2.453000000
C     1.433000000    -4.702000000     2.594000000
H     1.545000000    -5.723000000     2.222000000
H     1.582000000    -4.750000000     3.674000000
C     2.401000000    -3.845000000     1.784000000
C     2.766000000    -4.177000000     0.509000000
H     2.600000000    -5.127000000     0.007000000
C     2.807000000    -2.677000000     2.426000000
C     3.641000000    -1.840000000     1.718000000
H     3.804000000    -0.874000000     2.187000000
C     3.867000000    -2.058000000     0.365000000
O     4.621000000    -1.185000000    -0.296000000
C     3.822000000    -0.326000000    -1.159000000
C     4.278000000     1.096000000    -0.997000000
C     3.999000000     2.058000000    -1.967000000
H     3.439000000     1.712000000    -2.832000000
C     4.960000000     1.573000000     0.125000000
H     5.223000000     0.813000000     0.856000000
O     4.067000000    -0.734000000    -2.540000000
H     2.729000000    -0.387000000    -1.051000000
C     3.649000000    -3.290000000    -0.210000000
C     3.986000000    -3.529000000    -1.672000000
H     4.023000000    -4.611000000    -1.813000000
H     4.960000000    -3.105000000    -1.927000000
C     2.920000000    -2.867000000    -2.532000000
C     1.726000000    -3.579000000    -2.900000000
H     1.579000000    -4.554000000    -2.443000000
C     3.128000000    -1.584000000    -3.126000000
C     2.201000000    -1.072000000    -3.947000000
H     2.242000000    -0.017000000    -4.206000000
C     1.085000000    -1.768000000    -4.319000000
O     0.220000000    -1.083000000    -5.173000000
C    -0.994000000    -0.556000000    -4.526000000
C    -1.419000000     0.837000000    -4.963000000
C    -0.450000000     1.782000000    -5.134000000
H     0.569000000     1.503000000    -4.879000000
C    -2.788000000     1.205000000    -5.086000000
H    -3.637000000     0.542000000    -4.938000000
O    -2.154000000    -1.432000000    -4.654000000
H    -0.682000000    -0.506000000    -3.472000000
C     0.795000000    -3.043000000    -3.819000000
C    -0.434000000    -3.781000000    -4.196000000
H    -0.164000000    -4.838000000    -4.142000000
H    -0.617000000    -3.663000000    -5.266000000
C    -1.558000000    -3.401000000    -3.289000000
C    -2.349000000    -2.283000000    -3.593000000
C    -3.210000000    -1.755000000    -2.618000000
H    -3.824000000    -0.880000000    -2.813000000
C    -3.446000000    -2.467000000    -1.391000000
O    -4.228000000    -1.919000000    -0.409000000
C    -3.528000000    -1.378000000     0.766000000
H    -2.444000000    -1.239000000     0.643000000
C    -4.147000000    -0.023000000     1.140000000
C    -4.189000000     0.374000000     2.508000000
H    -3.840000000    -0.192000000     3.369000000
C    -4.611000000     0.853000000     0.140000000
H    -4.478000000     0.708000000    -0.929000000
C    -5.222000000     2.058000000     0.513000000
O    -5.789000000     2.865000000    -0.487000000
C    -5.194000000     2.496000000     1.851000000
H    -5.510000000     3.466000000     2.224000000
C    -4.790000000     1.620000000     2.813000000
O    -4.753000000     2.102000000     4.111000000
C    -4.066000000     1.565000000     5.119000000
C    -2.725000000     1.888000000     5.395000000
H    -2.136000000     2.581000000     4.800000000
C    -4.836000000     0.796000000     5.976000000
H    -5.878000000     0.689000000     5.684000000
C    -4.213000000     0.206000000     7.110000000
H    -4.722000000    -0.555000000     7.695000000
C    -2.912000000     0.502000000     7.353000000
H    -2.465000000    -0.049000000     8.177000000
C    -2.176000000     1.358000000     6.551000000
O    -0.937000000     1.775000000     6.977000000
C     0.224000000     1.310000000     6.370000000
C     1.413000000     1.988000000     6.549000000
H     1.475000000     2.993000000     6.959000000
C     2.523000000     1.522000000     5.842000000
O     3.623000000     2.265000000     5.757000000
C     4.638000000     2.193000000     4.794000000
C     4.535000000     2.875000000     3.549000000
H     3.615000000     3.411000000     3.332000000
C     5.837000000     1.551000000     5.085000000
H     5.823000000     1.027000000     6.038000000
C     6.940000000     1.576000000     4.256000000
H     7.811000000     0.950000000     4.431000000
C     6.742000000     2.136000000     2.981000000
H     7.520000000     1.973000000     2.239000000
C     5.565000000     2.803000000     2.625000000
O     5.504000000     3.497000000     1.477000000
C     5.212000000     2.921000000     0.282000000
C     4.896000000     3.890000000    -0.711000000
H     5.044000000     4.947000000    -0.501000000
C     4.220000000     3.417000000    -1.792000000
O     3.758000000     4.351000000    -2.660000000
C     3.267000000     3.976000000    -3.883000000
C     1.907000000     4.122000000    -4.028000000
H     1.199000000     4.284000000    -3.219000000
C     4.144000000     3.564000000    -4.866000000
H     5.211000000     3.383000000    -4.766000000
C     3.598000000     3.324000000    -6.137000000
H     4.342000000     3.217000000    -6.923000000
C     2.216000000     3.454000000    -6.330000000
H     1.745000000     3.347000000    -7.304000000
C     1.432000000     3.872000000    -5.273000000
O     0.089000000     4.089000000    -5.387000000
C    -0.825000000     3.089000000    -5.333000000
C    -2.173000000     3.493000000    -5.347000000
H    -2.478000000     4.537000000    -5.341000000
C    -3.159000000     2.532000000    -5.330000000
O    -4.478000000     2.823000000    -5.210000000
C    -5.253000000     2.486000000    -4.150000000
C    -6.138000000     1.499000000    -4.354000000
H    -6.219000000     1.051000000    -5.341000000
C    -6.940000000     1.001000000    -3.360000000
H    -7.682000000     0.232000000    -3.557000000
C    -6.891000000     1.495000000    -2.053000000
H    -7.513000000     1.143000000    -1.234000000
C    -6.014000000     2.467000000    -1.831000000
C    -5.206000000     2.977000000    -2.862000000
H    -4.647000000     3.859000000    -2.562000000
C    -0.430000000     2.168000000    -1.039000000
H    -1.017000000     3.027000000    -1.355000000
C    -0.965000000     0.856000000    -1.287000000
H    -1.839000000     0.610000000    -1.885000000
C    -0.327000000    -0.208000000    -0.697000000
H    -0.626000000    -1.344000000    -0.720000000
C     0.694000000    -0.015000000     0.268000000
H     1.096000000    -0.906000000     0.742000000
C     1.238000000     1.262000000     0.510000000
H     1.981000000     1.496000000     1.269000000
C     0.675000000     2.406000000    -0.181000000
C     1.119000000     3.736000000     0.231000000
O     1.710000000     3.844000000     1.249000000
O     0.606000000     4.731000000    -0.241000000
O     1.249000000    10.151000000    -1.924000000
H     1.434000000     9.260000000    -1.628000000
H     0.329000000    10.291000000    -1.700000000
O     7.262000000     5.571000000     1.640000000
H     8.087000000     5.436000000     2.107000000
H     6.698000000     4.859000000     1.940000000
O     4.579000000     5.924000000     5.473000000
H     4.978000000     6.768000000     5.259000000
H     3.759000000     5.915000000     4.979000000
O     3.091000000     6.108000000     0.794000000
H     2.457000000     6.582000000     0.256000000
H     2.652000000     5.286000000     1.013000000
O    -0.615000000     4.687000000     5.771000000
H    -0.185000000     4.118000000     5.133000000
H    -0.756000000     4.128000000     6.535000000
O    -2.211000000     8.151000000    -0.368000000
H    -2.088000000     9.063000000    -0.632000000
H    -2.566000000     8.205000000     0.519000000
O     0.909000000     3.320000000     3.736000000
H     0.045000000     2.985000000     3.495000000
H     1.347000000     3.477000000     2.900000000
O    -1.992000000     6.683000000     3.077000000
H    -1.198000000     6.798000000     2.554000000
H    -2.591000000     7.355000000     2.752000000
O     0.085000000     7.014000000     1.377000000
H    -0.501000000     7.375000000     0.712000000
H     0.370000000     6.175000000     1.015000000
O     4.665000000     7.489000000    -2.016000000
H     4.483000000     7.077000000    -1.172000000
H     3.824000000     7.478000000    -2.474000000
O    -1.384000000     2.313000000     2.255000000
H    -1.487000000     2.766000000     1.418000000
H    -1.075000000     1.438000000     2.018000000
O    -2.632000000     6.830000000    -3.853000000
H    -2.086000000     6.452000000    -3.164000000
H    -3.525000000     6.579000000    -3.616000000
O    -0.596000000     8.952000000     4.759000000
H    -0.551000000     9.371000000     3.899000000
H    -0.728000000     8.024000000     4.566000000
O     1.470000000     6.992000000     6.937000000
H     1.355000000     6.537000000     6.102000000
H     1.466000000     7.921000000     6.706000000
O     2.075000000     8.282000000    -4.044000000
H     2.647000000     8.306000000    -4.812000000
H     1.733000000     9.173000000    -3.973000000
O     1.691000000     7.403000000    -1.547000000
H     1.066000000     6.710000000    -1.334000000
H     1.629000000     7.498000000    -2.497000000
O     5.355000000     7.392000000     1.910000000
H     4.551000000     6.915000000     1.706000000
H     6.054000000     6.754000000     1.772000000
O     1.836000000     6.210000000     4.299000000
H     1.541000000     5.321000000     4.102000000
H     1.577000000     6.723000000     3.533000000
O    -1.336000000     5.921000000    -1.760000000
H    -1.798000000     6.465000000    -1.122000000
H    -0.589000000     5.568000000    -1.276000000
