215
-1457.72064
C     4.391000000     0.317000000    -2.464000000
H     3.716000000    -0.426000000    -2.880000000
C     4.901000000     0.228000000    -1.153000000
C     5.705000000     1.258000000    -0.667000000
H     6.194000000     1.215000000     0.303000000
C     4.385000000    -0.887000000    -0.242000000
O     4.699000000    -2.120000000    -0.878000000
H     3.303000000    -0.703000000    -0.164000000
O     4.889000000    -0.887000000     1.107000000
C     4.085000000    -0.971000000     2.090000000
C     3.650000000     0.214000000     2.693000000
H     3.904000000     1.217000000     2.362000000
C     2.659000000     0.045000000     3.670000000
O     2.115000000     1.171000000     4.134000000
C     2.296000000    -1.220000000     4.179000000
C     1.201000000    -1.404000000     5.322000000
H     1.431000000    -2.310000000     5.888000000
C    -0.189000000    -1.257000000     4.703000000
C    -0.923000000    -2.412000000     4.394000000
H    -0.471000000    -3.396000000     4.494000000
H     1.278000000    -0.642000000     6.099000000
C     2.887000000    -2.375000000     3.572000000
H     2.620000000    -3.387000000     3.865000000
C     3.700000000    -2.268000000     2.477000000
C     4.205000000    -3.499000000     1.692000000
H     4.151000000    -4.323000000     2.406000000
H     5.210000000    -3.190000000     1.397000000
C     3.353000000    -3.736000000     0.442000000
C     2.202000000    -4.498000000     0.554000000
H     1.970000000    -4.846000000     1.558000000
C     3.654000000    -3.062000000    -0.761000000
C     2.849000000    -3.318000000    -1.849000000
H     3.252000000    -2.874000000    -2.755000000
C     1.699000000    -4.060000000    -1.719000000
O     0.861000000    -4.088000000    -2.773000000
C    -0.350000000    -3.269000000    -2.666000000
C    -0.648000000    -2.492000000    -3.925000000
C    -2.030000000    -2.230000000    -4.272000000
H    -2.812000000    -2.560000000    -3.592000000
C     0.360000000    -1.976000000    -4.710000000
H     1.413000000    -2.205000000    -4.565000000
O    -1.427000000    -4.128000000    -2.229000000
H    -0.177000000    -2.560000000    -1.843000000
C     1.348000000    -4.707000000    -0.525000000
C     0.048000000    -5.508000000    -0.352000000
H     0.134000000    -6.303000000     0.392000000
H    -0.122000000    -6.092000000    -1.259000000
C    -1.119000000    -4.632000000     0.079000000
C    -1.387000000    -4.460000000     1.404000000
H    -0.742000000    -4.807000000     2.207000000
C    -1.892000000    -3.996000000    -0.864000000
C    -3.002000000    -3.241000000    -0.522000000
H    -3.506000000    -2.711000000    -1.326000000
C    -3.314000000    -3.203000000     0.797000000
O    -4.331000000    -2.332000000     1.146000000
C    -3.931000000    -1.024000000     1.622000000
C    -4.684000000     0.113000000     0.929000000
C    -5.024000000     0.162000000    -0.410000000
H    -4.805000000    -0.726000000    -0.997000000
C    -4.988000000     1.252000000     1.609000000
H    -4.629000000     1.315000000     2.633000000
O    -4.015000000    -1.003000000     3.060000000
H    -2.888000000    -1.001000000     1.272000000
C    -2.533000000    -3.779000000     1.848000000
C    -2.861000000    -3.573000000     3.325000000
H    -2.599000000    -4.428000000     3.952000000
H    -3.951000000    -3.520000000     3.285000000
C    -2.195000000    -2.302000000     3.860000000
C    -2.801000000    -1.068000000     3.665000000
C    -2.087000000     0.034000000     4.064000000
H    -2.600000000     0.988000000     3.979000000
C    -0.778000000    -0.019000000     4.484000000
O    -0.099000000     1.130000000     4.666000000
C     0.784000000     1.428000000     3.630000000
H     0.526000000     0.729000000     2.821000000
C     0.506000000     2.763000000     3.042000000
C     1.348000000     3.305000000     2.066000000
H     2.275000000     2.828000000     1.757000000
C    -0.609000000     3.505000000     3.416000000
H    -1.354000000     3.152000000     4.124000000
C    -0.798000000     4.766000000     2.883000000
O    -1.834000000     5.614000000     3.185000000
C     0.063000000     5.313000000     1.917000000
H    -0.076000000     6.343000000     1.599000000
C     1.161000000     4.566000000     1.521000000
O     2.096000000     5.120000000     0.640000000
C     3.421000000     5.021000000     0.826000000
C     4.272000000     4.398000000    -0.156000000
H     3.826000000     4.080000000    -1.095000000
C     4.026000000     5.718000000     1.854000000
H     3.416000000     6.257000000     2.574000000
C     5.403000000     5.756000000     1.955000000
H     5.872000000     6.292000000     2.777000000
C     6.171000000     4.923000000     1.179000000
H     7.248000000     4.872000000     1.316000000
C     5.658000000     4.282000000     0.042000000
O     6.445000000     3.498000000    -0.764000000
C     5.811000000     2.439000000    -1.368000000
C     5.350000000     2.564000000    -2.695000000
H     5.370000000     3.536000000    -3.181000000
C     4.600000000     1.474000000    -3.223000000
O     4.368000000     1.446000000    -4.568000000
C     3.943000000     0.304000000    -5.206000000
C     2.618000000     0.212000000    -5.542000000
H     1.884000000     0.913000000    -5.152000000
C     4.922000000    -0.653000000    -5.625000000
H     5.981000000    -0.574000000    -5.394000000
C     4.521000000    -1.678000000    -6.493000000
H     5.117000000    -2.513000000    -6.852000000
C     3.185000000    -1.767000000    -6.838000000
H     2.830000000    -2.579000000    -7.468000000
C     2.211000000    -0.816000000    -6.383000000
O     0.946000000    -0.955000000    -6.790000000
C     0.036000000    -1.283000000    -5.829000000
C    -1.262000000    -1.074000000    -6.248000000
H    -1.411000000    -0.389000000    -7.078000000
C    -2.246000000    -1.498000000    -5.453000000
O    -3.510000000    -0.960000000    -5.711000000
C    -4.516000000    -0.914000000    -4.826000000
C    -4.719000000     0.252000000    -4.007000000
H    -3.953000000     1.012000000    -4.140000000
C    -5.593000000    -1.846000000    -4.846000000
H    -5.534000000    -2.613000000    -5.614000000
C    -6.719000000    -1.715000000    -4.054000000
H    -7.529000000    -2.430000000    -4.173000000
C    -6.868000000    -0.661000000    -3.197000000
H    -7.756000000    -0.615000000    -2.571000000
C    -5.892000000     0.321000000    -3.193000000
O    -6.098000000     1.367000000    -2.327000000
C    -5.718000000     1.278000000    -0.977000000
C    -6.000000000     2.323000000    -0.193000000
H    -6.433000000     3.166000000    -0.723000000
C    -5.628000000     2.369000000     1.130000000
O    -5.922000000     3.526000000     1.859000000
C    -5.163000000     4.112000000     2.850000000
C    -5.675000000     4.242000000     4.135000000
H    -6.671000000     3.897000000     4.403000000
C    -4.943000000     4.947000000     5.115000000
H    -5.392000000     5.256000000     6.056000000
C    -3.659000000     5.365000000     4.797000000
H    -3.112000000     5.946000000     5.535000000
C    -3.101000000     5.195000000     3.505000000
C    -3.875000000     4.524000000     2.566000000
H    -3.482000000     4.387000000     1.562000000
C    -0.360000000     0.599000000    -1.963000000
H    -0.064000000     0.539000000    -3.007000000
C     0.162000000    -0.271000000    -0.975000000
H     0.893000000    -1.049000000    -1.177000000
C    -0.326000000    -0.168000000     0.338000000
H     0.148000000    -0.748000000     1.117000000
C    -1.182000000     0.886000000     0.683000000
H    -1.466000000     1.099000000     1.711000000
C    -1.652000000     1.677000000    -0.327000000
H    -2.380000000     2.414000000     0.004000000
C    -1.327000000     1.526000000    -1.619000000
C    -1.897000000     2.456000000    -2.706000000
O    -2.844000000     3.117000000    -2.393000000
O    -1.437000000     2.485000000    -3.853000000
O    -2.997000000     6.026000000    -6.695000000
H    -2.305000000     5.416000000    -6.443000000
H    -3.563000000     5.520000000    -7.278000000
O    -4.172000000     6.614000000    -3.384000000
H    -4.273000000     7.560000000    -3.493000000
H    -3.806000000     6.512000000    -2.505000000
O    -4.967000000    -0.726000000    -8.064000000
H    -4.533000000    -1.068000000    -7.282000000
H    -4.282000000    -0.246000000    -8.528000000
O    -6.473000000     5.936000000    -5.646000000
H    -5.874000000     5.435000000    -5.093000000
H    -7.017000000     6.425000000    -5.029000000
O    -8.345000000     3.496000000    -3.379000000
H    -7.425000000     3.731000000    -3.498000000
H    -8.756000000     3.702000000    -4.219000000
O     1.441000000     4.493000000    -7.323000000
H     1.080000000     5.151000000    -6.728000000
H     1.195000000     3.655000000    -6.932000000
O    -1.538000000     5.286000000    -4.027000000
H    -1.658000000     4.384000000    -3.732000000
H    -2.426000000     5.638000000    -4.089000000
O    -1.962000000     3.020000000    -6.451000000
H    -1.802000000     3.007000000    -5.508000000
H    -2.914000000     3.078000000    -6.532000000
O    -4.510000000     3.253000000    -6.604000000
H    -5.046000000     3.301000000    -5.812000000
H    -5.138000000     3.331000000    -7.322000000
O    -3.350000000     5.063000000    -0.840000000
H    -3.313000000     4.153000000    -1.135000000
H    -2.444000000     5.368000000    -0.891000000
O     1.095000000     2.810000000    -3.007000000
H     0.962000000     2.390000000    -2.157000000
H     0.246000000     2.743000000    -3.443000000
O     2.430000000     5.010000000    -4.361000000
H     2.724000000     4.590000000    -5.169000000
H     1.940000000     4.328000000    -3.901000000
O     0.703000000     7.333000000    -4.577000000
H     0.142000000     6.560000000    -4.521000000
H     1.561000000     7.029000000    -4.282000000
O    -2.552000000     3.082000000    -9.275000000
H    -2.415000000     3.027000000    -8.330000000
H    -3.362000000     3.583000000    -9.371000000
O    -2.773000000     8.430000000     0.014000000
H    -2.165000000     8.944000000    -0.518000000
H    -2.543000000     7.519000000    -0.173000000
O    -5.464000000     6.863000000    -0.147000000
H    -4.827000000     6.149000000    -0.153000000
H    -5.630000000     7.044000000    -1.072000000
O     0.583000000     1.891000000    -7.170000000
H    -0.275000000     2.281000000    -7.333000000
H     0.393000000     0.981000000    -6.939000000
O    -5.437000000     3.587000000    -3.900000000
H    -4.643000000     3.587000000    -3.365000000
H    -5.875000000     2.766000000    -3.679000000
O    -1.196000000     6.717000000    -1.675000000
H    -0.287000000     7.014000000    -1.692000000
H    -1.328000000     6.299000000    -2.525000000
