215
-1464.15244
C     1.443000000     0.355000000     4.916000000
H     2.335000000     0.068000000     4.366000000
C     0.290000000    -0.482000000     4.914000000
C    -0.877000000    -0.098000000     5.604000000
H    -1.708000000    -0.799000000     5.605000000
C     0.280000000    -1.714000000     4.075000000
O     1.588000000    -2.307000000     4.096000000
H     0.123000000    -1.413000000     3.028000000
O    -0.741000000    -2.711000000     4.400000000
C    -1.345000000    -3.263000000     3.375000000
C    -2.525000000    -2.686000000     2.945000000
H    -2.929000000    -1.838000000     3.492000000
C    -3.084000000    -3.110000000     1.726000000
O    -4.171000000    -2.374000000     1.286000000
C    -2.438000000    -4.101000000     0.934000000
C    -3.190000000    -4.520000000    -0.314000000
H    -2.905000000    -5.558000000    -0.501000000
C    -2.753000000    -3.724000000    -1.543000000
C    -1.591000000    -4.044000000    -2.231000000
H    -0.985000000    -4.907000000    -1.967000000
H    -4.264000000    -4.582000000    -0.129000000
C    -1.198000000    -4.706000000     1.384000000
H    -0.708000000    -5.495000000     0.818000000
C    -0.697000000    -4.273000000     2.572000000
C     0.779000000    -4.784000000     2.916000000
H     0.953000000    -5.767000000     2.475000000
H     0.956000000    -4.925000000     3.984000000
C     1.890000000    -3.927000000     2.271000000
C     2.474000000    -4.271000000     1.042000000
H     2.252000000    -5.213000000     0.548000000
C     2.243000000    -2.725000000     2.929000000
C     3.216000000    -1.906000000     2.329000000
H     3.449000000    -0.963000000     2.818000000
C     3.708000000    -2.206000000     1.067000000
O     4.568000000    -1.386000000     0.510000000
C     4.131000000    -0.533000000    -0.520000000
C     4.820000000     0.851000000    -0.321000000
C     5.023000000     1.693000000    -1.435000000
H     4.896000000     1.282000000    -2.433000000
C     5.073000000     1.374000000     0.940000000
H     4.947000000     0.769000000     1.834000000
O     4.601000000    -1.015000000    -1.831000000
H     3.046000000    -0.352000000    -0.507000000
C     3.341000000    -3.346000000     0.414000000
C     4.035000000    -3.773000000    -0.903000000
H     3.999000000    -4.864000000    -0.932000000
H     5.069000000    -3.433000000    -0.810000000
C     3.310000000    -3.047000000    -2.031000000
C     2.272000000    -3.722000000    -2.609000000
H     2.085000000    -4.737000000    -2.268000000
C     3.704000000    -1.793000000    -2.528000000
C     2.850000000    -1.110000000    -3.462000000
H     3.093000000    -0.080000000    -3.711000000
C     1.770000000    -1.790000000    -4.021000000
O     0.997000000    -0.972000000    -4.839000000
C    -0.292000000    -0.563000000    -4.238000000
C    -0.602000000     0.932000000    -4.603000000
C     0.489000000     1.868000000    -4.489000000
H     1.453000000     1.371000000    -4.415000000
C    -1.899000000     1.490000000    -4.711000000
H    -2.707000000     0.793000000    -4.916000000
O    -1.440000000    -1.393000000    -4.658000000
H    -0.151000000    -0.468000000    -3.152000000
C     1.403000000    -3.058000000    -3.520000000
C     0.118000000    -3.703000000    -4.087000000
H     0.254000000    -4.786000000    -4.063000000
H    -0.046000000    -3.420000000    -5.129000000
C    -1.101000000    -3.300000000    -3.259000000
C    -1.832000000    -2.213000000    -3.658000000
C    -3.019000000    -1.853000000    -3.040000000
H    -3.508000000    -0.914000000    -3.287000000
C    -3.456000000    -2.585000000    -1.930000000
O    -4.449000000    -2.034000000    -1.128000000
C    -3.941000000    -1.489000000     0.109000000
H    -2.862000000    -1.290000000     0.023000000
C    -4.574000000    -0.077000000     0.342000000
C    -4.349000000     0.543000000     1.557000000
H    -3.911000000     0.002000000     2.392000000
C    -5.259000000     0.586000000    -0.636000000
H    -5.545000000     0.079000000    -1.555000000
C    -5.588000000     1.940000000    -0.518000000
O    -6.178000000     2.760000000    -1.494000000
C    -5.366000000     2.562000000     0.716000000
H    -5.703000000     3.574000000     0.922000000
C    -4.775000000     1.821000000     1.734000000
O    -4.519000000     2.453000000     2.928000000
C    -4.499000000     1.938000000     4.203000000
C    -3.271000000     1.891000000     4.891000000
H    -2.383000000     2.237000000     4.367000000
C    -5.697000000     1.592000000     4.862000000
H    -6.660000000     1.665000000     4.363000000
C    -5.697000000     1.183000000     6.194000000
H    -6.531000000     1.059000000     6.879000000
C    -4.470000000     1.047000000     6.883000000
H    -4.452000000     0.779000000     7.937000000
C    -3.262000000     1.409000000     6.213000000
O    -2.048000000     1.418000000     6.912000000
C    -0.838000000     1.077000000     6.331000000
C     0.271000000     1.940000000     6.381000000
H     0.215000000     2.917000000     6.854000000
C     1.441000000     1.533000000     5.730000000
O     2.595000000     2.338000000     5.701000000
C     3.856000000     2.000000000     5.228000000
C     4.366000000     2.760000000     4.117000000
H     3.863000000     3.596000000     3.638000000
C     4.596000000     0.963000000     5.691000000
H     4.282000000     0.401000000     6.567000000
C     5.847000000     0.648000000     5.089000000
H     6.426000000    -0.167000000     5.515000000
C     6.327000000     1.447000000     3.999000000
H     7.292000000     1.187000000     3.573000000
C     5.580000000     2.486000000     3.498000000
O     5.876000000     3.116000000     2.334000000
C     5.441000000     2.725000000     1.097000000
C     5.470000000     3.584000000     0.027000000
H     5.919000000     4.559000000     0.198000000
C     5.306000000     3.067000000    -1.309000000
O     5.530000000     3.789000000    -2.500000000
C     4.767000000     3.629000000    -3.666000000
C     3.336000000     3.746000000    -3.606000000
H     2.805000000     4.127000000    -2.738000000
C     5.397000000     3.489000000    -4.919000000
H     6.483000000     3.453000000    -4.965000000
C     4.669000000     3.549000000    -6.123000000
H     5.109000000     3.398000000    -7.106000000
C     3.263000000     3.720000000    -6.024000000
H     2.681000000     3.864000000    -6.930000000
C     2.626000000     3.846000000    -4.778000000
O     1.342000000     4.156000000    -4.666000000
C     0.298000000     3.239000000    -4.620000000
C    -0.998000000     3.758000000    -4.791000000
H    -1.175000000     4.818000000    -4.954000000
C    -2.105000000     2.886000000    -4.833000000
O    -3.364000000     3.381000000    -5.209000000
C    -4.617000000     2.937000000    -4.782000000
C    -5.556000000     2.337000000    -5.606000000
H    -5.475000000     2.245000000    -6.686000000
C    -6.776000000     1.986000000    -5.053000000
H    -7.622000000     1.674000000    -5.661000000
C    -7.031000000     2.070000000    -3.680000000
H    -7.979000000     1.761000000    -3.248000000
C    -6.033000000     2.581000000    -2.846000000
C    -4.817000000     3.034000000    -3.372000000
H    -4.097000000     3.455000000    -2.675000000
C    -1.208000000     1.982000000    -1.239000000
H    -1.947000000     2.709000000    -1.567000000
C    -1.485000000     0.625000000    -1.163000000
H    -2.390000000     0.208000000    -1.596000000
C    -0.546000000    -0.187000000    -0.601000000
H    -0.730000000    -1.301000000    -0.567000000
C     0.597000000     0.362000000    -0.056000000
H     1.254000000    -0.268000000     0.539000000
C     0.770000000     1.720000000     0.010000000
H     1.570000000     2.156000000     0.603000000
C    -0.096000000     2.526000000    -0.650000000
C     0.107000000     4.000000000    -0.478000000
O     1.220000000     4.456000000    -0.275000000
O    -0.834000000     4.747000000    -0.611000000
O     3.374000000     7.001000000     2.589000000
H     3.888000000     6.838000000     1.798000000
H     2.882000000     6.191000000     2.726000000
O    -2.109000000     7.675000000     0.336000000
H    -1.224000000     7.401000000     0.577000000
H    -2.633000000     6.877000000     0.405000000
O     1.704000000     7.073000000    -4.633000000
H     2.314000000     6.491000000    -4.179000000
H     1.654000000     6.721000000    -5.522000000
O    -1.130000000     5.811000000     4.718000000
H    -1.837000000     5.906000000     4.079000000
H    -0.564000000     5.133000000     4.350000000
O    -1.282000000     9.894000000    -0.763000000
H    -1.907000000     9.241000000    -0.446000000
H    -0.517000000     9.384000000    -1.030000000
O     0.515000000     6.705000000     1.296000000
H     0.868000000     6.104000000     0.640000000
H     1.225000000     7.327000000     1.457000000
O    -2.271000000     8.993000000     2.744000000
H    -2.824000000     9.774000000     2.706000000
H    -2.491000000     8.506000000     1.950000000
O    -0.371000000     3.250000000     3.346000000
H    -0.580000000     2.317000000     3.292000000
H    -1.048000000     3.678000000     2.822000000
O    -1.812000000     5.084000000     2.015000000
H    -2.384000000     5.025000000     1.249000000
H    -1.017000000     5.505000000     1.689000000
O    -3.570000000     5.421000000    -0.535000000
H    -4.058000000     4.747000000    -1.007000000
H    -2.710000000     5.432000000    -0.956000000
O    -1.577000000     0.976000000     2.285000000
H    -1.138000000     0.591000000     1.526000000
H    -2.506000000     0.794000000     2.143000000
O    -2.718000000     7.076000000    -3.756000000
H    -1.915000000     6.703000000    -3.391000000
H    -2.978000000     7.748000000    -3.126000000
O    -5.221000000     6.601000000     1.402000000
H    -6.127000000     6.416000000     1.156000000
H    -4.699000000     6.222000000     0.694000000
O     1.053000000     8.823000000    -1.851000000
H     0.800000000     7.914000000    -1.691000000
H     2.008000000     8.799000000    -1.912000000
O     2.612000000     6.499000000    -1.346000000
H     2.143000000     5.729000000    -1.025000000
H     3.350000000     6.599000000    -0.744000000
O     5.400000000     6.991000000     0.441000000
H     5.986000000     6.989000000    -0.316000000
H     5.971000000     6.805000000     1.186000000
O     0.292000000     8.593000000     4.814000000
H    -0.378000000     9.122000000     4.381000000
H     0.186000000     7.719000000     4.439000000
O     2.084000000     4.526000000     2.408000000
H     1.459000000     4.080000000     2.979000000
H     1.837000000     4.254000000     1.524000000
O    -0.396000000     6.249000000    -2.722000000
H     0.457000000     6.347000000    -3.145000000
H    -0.237000000     5.639000000    -2.001000000
