215
-1445.07897
C     2.682000000     0.836000000     4.329000000
H     3.612000000     0.475000000     3.897000000
C     1.615000000     0.009000000     4.238000000
C     0.368000000     0.531000000     4.658000000
H    -0.558000000    -0.020000000     4.513000000
C     1.718000000    -1.325000000     3.502000000
O     3.083000000    -1.739000000     3.306000000
H     1.194000000    -1.115000000     2.558000000
O     1.051000000    -2.348000000     4.314000000
C     0.250000000    -3.156000000     3.572000000
C    -1.134000000    -2.938000000     3.730000000
H    -1.626000000    -2.348000000     4.499000000
C    -1.935000000    -3.521000000     2.859000000
O    -3.203000000    -2.959000000     2.814000000
C    -1.478000000    -4.396000000     1.838000000
C    -2.323000000    -5.012000000     0.757000000
H    -1.885000000    -5.962000000     0.443000000
C    -2.480000000    -4.111000000    -0.477000000
C    -1.589000000    -4.334000000    -1.600000000
H    -0.892000000    -5.167000000    -1.642000000
H    -3.348000000    -5.131000000     1.115000000
C    -0.138000000    -4.773000000     1.820000000
H     0.260000000    -5.368000000     1.002000000
C     0.709000000    -4.175000000     2.700000000
C     2.222000000    -4.446000000     2.619000000
H     2.269000000    -5.515000000     2.402000000
H     2.654000000    -4.393000000     3.621000000
C     2.885000000    -3.517000000     1.585000000
C     3.078000000    -3.824000000     0.222000000
H     2.686000000    -4.793000000    -0.075000000
C     3.293000000    -2.194000000     2.026000000
C     3.986000000    -1.404000000     1.164000000
H     4.365000000    -0.449000000     1.519000000
C     4.260000000    -1.742000000    -0.147000000
O     4.791000000    -0.755000000    -0.885000000
C     3.919000000    -0.107000000    -1.786000000
C     4.209000000     1.362000000    -1.782000000
C     4.126000000     2.099000000    -2.946000000
H     3.955000000     1.635000000    -3.914000000
C     4.310000000     2.065000000    -0.600000000
H     4.250000000     1.560000000     0.360000000
O     3.947000000    -0.660000000    -3.159000000
H     2.887000000    -0.156000000    -1.411000000
C     3.731000000    -2.919000000    -0.655000000
C     3.985000000    -3.378000000    -2.079000000
H     3.888000000    -4.461000000    -2.184000000
H     4.950000000    -3.033000000    -2.457000000
C     2.851000000    -2.815000000    -2.945000000
C     1.710000000    -3.554000000    -3.076000000
H     1.635000000    -4.523000000    -2.590000000
C     2.930000000    -1.539000000    -3.469000000
C     1.847000000    -0.977000000    -4.165000000
H     1.775000000     0.076000000    -4.423000000
C     0.697000000    -1.755000000    -4.258000000
O    -0.399000000    -1.051000000    -4.800000000
C    -1.425000000    -0.506000000    -3.874000000
C    -1.812000000     0.819000000    -4.380000000
C    -0.843000000     1.748000000    -4.855000000
H     0.159000000     1.381000000    -5.065000000
C    -3.042000000     1.342000000    -3.938000000
H    -3.797000000     0.718000000    -3.466000000
O    -2.576000000    -1.406000000    -3.702000000
H    -0.916000000    -0.425000000    -2.902000000
C     0.601000000    -3.019000000    -3.710000000
C    -0.680000000    -3.827000000    -3.947000000
H    -0.408000000    -4.869000000    -4.127000000
H    -1.146000000    -3.449000000    -4.860000000
C    -1.684000000    -3.499000000    -2.780000000
C    -2.558000000    -2.404000000    -2.766000000
C    -3.372000000    -2.179000000    -1.634000000
H    -3.948000000    -1.258000000    -1.591000000
C    -3.336000000    -3.008000000    -0.520000000
O    -4.110000000    -2.761000000     0.566000000
C    -3.516000000    -2.097000000     1.725000000
H    -2.494000000    -1.831000000     1.415000000
C    -4.373000000    -0.886000000     2.151000000
C    -4.653000000    -0.606000000     3.497000000
H    -4.267000000    -1.283000000     4.255000000
C    -4.840000000    -0.006000000     1.207000000
H    -4.609000000    -0.198000000     0.163000000
C    -5.624000000     1.080000000     1.627000000
O    -6.162000000     1.976000000     0.784000000
C    -5.902000000     1.334000000     2.982000000
H    -6.551000000     2.153000000     3.278000000
C    -5.353000000     0.537000000     3.866000000
O    -5.464000000     0.969000000     5.147000000
C    -4.343000000     1.083000000     5.955000000
C    -3.255000000     1.780000000     5.447000000
H    -3.473000000     2.496000000     4.658000000
C    -4.099000000     0.164000000     6.981000000
H    -4.772000000    -0.614000000     7.334000000
C    -2.816000000    -0.058000000     7.546000000
H    -2.554000000    -0.823000000     8.273000000
C    -1.804000000     0.784000000     7.141000000
H    -0.825000000     0.767000000     7.612000000
C    -2.002000000     1.669000000     6.069000000
O    -0.938000000     2.419000000     5.478000000
C     0.262000000     1.808000000     5.190000000
C     1.392000000     2.624000000     5.319000000
H     1.237000000     3.663000000     5.598000000
C     2.595000000     2.133000000     4.916000000
O     3.593000000     3.014000000     4.989000000
C     4.577000000     3.072000000     4.050000000
C     4.262000000     3.611000000     2.834000000
H     3.335000000     4.154000000     2.669000000
C     5.790000000     2.426000000     4.200000000
H     6.019000000     1.991000000     5.169000000
C     6.612000000     2.231000000     3.111000000
H     7.410000000     1.493000000     3.086000000
C     6.308000000     2.759000000     1.847000000
H     6.870000000     2.531000000     0.945000000
C     5.122000000     3.570000000     1.703000000
O     4.725000000     4.123000000     0.549000000
C     4.569000000     3.456000000    -0.633000000
C     4.587000000     4.124000000    -1.826000000
H     4.770000000     5.194000000    -1.877000000
C     4.344000000     3.500000000    -3.003000000
O     4.276000000     4.206000000    -4.216000000
C     3.320000000     3.900000000    -5.217000000
C     1.951000000     4.021000000    -4.936000000
H     1.705000000     4.219000000    -3.896000000
C     3.676000000     3.595000000    -6.474000000
H     4.741000000     3.519000000    -6.678000000
C     2.749000000     3.354000000    -7.513000000
H     3.074000000     2.905000000    -8.447000000
C     1.386000000     3.372000000    -7.178000000
H     0.620000000     3.129000000    -7.910000000
C     0.930000000     3.747000000    -5.905000000
O    -0.331000000     4.043000000    -5.569000000
C    -1.245000000     3.103000000    -5.064000000
C    -2.440000000     3.559000000    -4.564000000
H    -2.566000000     4.636000000    -4.628000000
C    -3.341000000     2.699000000    -4.032000000
O    -4.505000000     3.310000000    -3.517000000
C    -5.408000000     2.575000000    -2.772000000
C    -6.297000000     1.656000000    -3.338000000
H    -6.248000000     1.434000000    -4.400000000
C    -7.251000000     0.978000000    -2.536000000
H    -7.938000000     0.253000000    -2.967000000
C    -7.182000000     1.007000000    -1.199000000
H    -7.747000000     0.329000000    -0.564000000
C    -6.280000000     1.923000000    -0.605000000
C    -5.412000000     2.711000000    -1.396000000
H    -4.695000000     3.298000000    -0.827000000
C    -1.159000000     3.041000000    -0.746000000
H    -2.116000000     3.511000000    -0.960000000
C    -1.105000000     1.644000000    -0.787000000
H    -2.006000000     1.038000000    -0.839000000
C     0.063000000     1.029000000    -0.521000000
H     0.163000000    -0.056000000    -0.546000000
C     1.129000000     1.754000000     0.052000000
H     1.966000000     1.249000000     0.528000000
C     1.074000000     3.155000000     0.114000000
H     1.855000000     3.796000000     0.517000000
C    -0.012000000     3.839000000    -0.465000000
C     0.028000000     5.363000000    -0.399000000
O     0.903000000     6.044000000     0.134000000
O    -0.907000000     5.931000000    -0.969000000
O     1.336000000    10.973000000     0.063000000
H     1.178000000    10.195000000     0.597000000
H     2.086000000    10.740000000    -0.485000000
O     4.277000000     7.315000000     1.204000000
H     4.352000000     8.256000000     1.362000000
H     3.828000000     7.249000000     0.361000000
O     1.324000000     7.326000000    -4.061000000
H     0.898000000     8.158000000    -3.855000000
H     0.607000000     6.694000000    -4.110000000
O    -0.732000000     8.582000000    -0.796000000
H    -0.843000000     7.644000000    -0.952000000
H    -0.382000000     8.638000000     0.093000000
O    -1.308000000     8.436000000     2.879000000
H    -1.620000000     7.534000000     2.955000000
H    -2.103000000     8.969000000     2.923000000
O     1.458000000     5.675000000     2.613000000
H     0.521000000     5.509000000     2.714000000
H     1.552000000     5.976000000     1.709000000
O    -3.152000000     5.635000000     0.948000000
H    -2.424000000     5.900000000     0.386000000
H    -3.920000000     5.667000000     0.378000000
O     0.934000000     8.610000000     1.427000000
H     0.215000000     8.421000000     2.031000000
H     1.116000000     7.771000000     1.003000000
O     5.264000000     7.784000000    -2.653000000
H     4.746000000     7.678000000    -1.855000000
H     5.968000000     7.141000000    -2.569000000
O    -1.489000000     4.590000000     3.101000000
H    -2.204000000     4.711000000     2.476000000
H    -1.079000000     3.766000000     2.839000000
O    -3.921000000     8.116000000    -2.573000000
H    -3.710000000     8.826000000    -1.967000000
H    -4.108000000     7.366000000    -2.008000000
O    -3.086000000    10.065000000    -0.832000000
H    -2.178000000     9.763000000    -0.787000000
H    -3.072000000    10.767000000    -1.482000000
O    -5.267000000     4.924000000     2.868000000
H    -6.068000000     5.239000000     2.449000000
H    -4.614000000     4.927000000     2.169000000
O     0.017000000     9.408000000    -3.359000000
H    -0.116000000     9.108000000    -2.460000000
H    -0.278000000    10.319000000    -3.354000000
O     2.956000000     7.127000000    -1.058000000
H     2.373000000     6.428000000    -0.762000000
H     2.509000000     7.509000000    -1.813000000
O    -0.209000000    11.203000000     2.413000000
H     0.218000000    11.445000000     1.591000000
H    -0.100000000    10.253000000     2.468000000
O     3.751000000     6.916000000     3.773000000
H     2.877000000     6.682000000     3.459000000
H     4.227000000     7.174000000     2.984000000
O    -5.130000000     5.812000000    -1.075000000
H    -5.327000000     5.191000000    -1.776000000
H    -5.985000000     6.135000000    -0.792000000
O    -1.492000000     6.749000000    -3.443000000
H    -2.302000000     7.225000000    -3.259000000
H    -1.215000000     6.410000000    -2.591000000
