215
-1453.99970
C     1.288000000     0.180000000     4.918000000
H     2.283000000     0.132000000     4.483000000
C     0.398000000    -0.915000000     4.887000000
C    -0.822000000    -0.890000000     5.573000000
H    -1.523000000    -1.721000000     5.591000000
C     0.700000000    -2.099000000     3.915000000
O     2.050000000    -2.577000000     3.977000000
H     0.427000000    -1.616000000     2.965000000
O    -0.242000000    -3.159000000     4.105000000
C    -0.793000000    -3.600000000     2.893000000
C    -1.955000000    -3.001000000     2.482000000
H    -2.422000000    -2.222000000     3.079000000
C    -2.546000000    -3.459000000     1.245000000
O    -3.719000000    -2.901000000     0.938000000
C    -1.939000000    -4.386000000     0.431000000
C    -2.583000000    -4.793000000    -0.816000000
H    -2.415000000    -5.844000000    -1.061000000
C    -2.242000000    -3.757000000    -1.947000000
C    -1.126000000    -3.945000000    -2.711000000
H    -0.537000000    -4.843000000    -2.539000000
H    -3.647000000    -4.799000000    -0.568000000
C    -0.623000000    -4.772000000     0.764000000
H    -0.151000000    -5.468000000     0.075000000
C    -0.064000000    -4.378000000     1.985000000
C     1.328000000    -4.891000000     2.341000000
H     1.522000000    -5.834000000     1.826000000
H     1.410000000    -5.178000000     3.391000000
C     2.371000000    -3.883000000     1.945000000
C     2.986000000    -4.037000000     0.705000000
H     2.855000000    -4.931000000     0.099000000
C     2.677000000    -2.818000000     2.774000000
C     3.534000000    -1.797000000     2.259000000
H     3.648000000    -0.954000000     2.936000000
C     4.112000000    -1.953000000     0.975000000
O     4.809000000    -0.853000000     0.601000000
C     4.220000000     0.011000000    -0.376000000
C     4.500000000     1.507000000    -0.134000000
C     4.409000000     2.375000000    -1.158000000
H     4.096000000     2.081000000    -2.156000000
C     4.635000000     1.995000000     1.183000000
H     4.646000000     1.265000000     1.988000000
O     4.700000000    -0.356000000    -1.705000000
H     3.130000000    -0.138000000    -0.347000000
C     3.786000000    -3.034000000     0.117000000
C     4.400000000    -3.205000000    -1.224000000
H     4.319000000    -4.234000000    -1.582000000
H     5.446000000    -2.892000000    -1.210000000
C     3.571000000    -2.406000000    -2.220000000
C     2.564000000    -3.067000000    -2.931000000
H     2.201000000    -4.067000000    -2.707000000
C     3.844000000    -1.062000000    -2.504000000
C     3.084000000    -0.412000000    -3.487000000
H     3.343000000     0.594000000    -3.807000000
C     1.974000000    -1.063000000    -4.059000000
O     1.155000000    -0.286000000    -4.880000000
C    -0.172000000     0.128000000    -4.408000000
C    -0.575000000     1.466000000    -4.918000000
C     0.419000000     2.399000000    -5.231000000
H     1.451000000     2.073000000    -5.340000000
C    -1.868000000     1.921000000    -4.822000000
H    -2.725000000     1.305000000    -4.561000000
O    -1.137000000    -0.865000000    -4.723000000
H    -0.124000000     0.160000000    -3.309000000
C     1.723000000    -2.385000000    -3.792000000
C     0.571000000    -3.144000000    -4.455000000
H     0.781000000    -4.207000000    -4.589000000
H     0.398000000    -2.787000000    -5.472000000
C    -0.722000000    -2.997000000    -3.622000000
C    -1.461000000    -1.826000000    -3.834000000
C    -2.595000000    -1.682000000    -3.076000000
H    -3.248000000    -0.816000000    -3.142000000
C    -2.995000000    -2.612000000    -2.114000000
O    -3.923000000    -2.238000000    -1.242000000
C    -3.674000000    -1.776000000     0.023000000
H    -2.652000000    -1.377000000     0.099000000
C    -4.593000000    -0.576000000     0.429000000
C    -4.996000000    -0.423000000     1.756000000
H    -4.828000000    -1.196000000     2.502000000
C    -4.845000000     0.425000000    -0.478000000
H    -4.564000000     0.329000000    -1.524000000
C    -5.426000000     1.629000000    -0.023000000
O    -5.775000000     2.595000000    -0.908000000
C    -5.857000000     1.755000000     1.305000000
H    -6.381000000     2.639000000     1.659000000
C    -5.577000000     0.780000000     2.183000000
O    -5.839000000     1.009000000     3.501000000
C    -5.329000000     0.351000000     4.526000000
C    -4.044000000     0.605000000     5.004000000
H    -3.439000000     1.383000000     4.545000000
C    -6.136000000    -0.624000000     5.154000000
H    -7.092000000    -0.859000000     4.693000000
C    -5.675000000    -1.252000000     6.321000000
H    -6.317000000    -1.925000000     6.884000000
C    -4.413000000    -0.958000000     6.801000000
H    -4.028000000    -1.425000000     7.703000000
C    -3.588000000    -0.033000000     6.163000000
O    -2.430000000     0.460000000     6.753000000
C    -1.203000000     0.259000000     6.295000000
C    -0.237000000     1.312000000     6.400000000
H    -0.429000000     2.156000000     7.058000000
C     1.008000000     1.242000000     5.732000000
O     1.762000000     2.313000000     5.843000000
C     3.114000000     2.371000000     5.506000000
C     3.366000000     3.177000000     4.369000000
H     2.508000000     3.634000000     3.882000000
C     4.096000000     1.549000000     5.981000000
H     3.811000000     0.861000000     6.773000000
C     5.415000000     1.609000000     5.482000000
H     6.218000000     1.032000000     5.934000000
C     5.601000000     2.380000000     4.348000000
H     6.516000000     2.381000000     3.761000000
C     4.577000000     3.123000000     3.795000000
O     4.721000000     3.845000000     2.612000000
C     4.850000000     3.326000000     1.366000000
C     4.956000000     4.198000000     0.344000000
H     5.236000000     5.243000000     0.454000000
C     4.548000000     3.779000000    -0.897000000
O     4.469000000     4.708000000    -1.956000000
C     4.200000000     4.383000000    -3.263000000
C     2.844000000     4.487000000    -3.652000000
H     2.085000000     4.696000000    -2.902000000
C     5.156000000     4.306000000    -4.285000000
H     6.205000000     4.121000000    -4.068000000
C     4.764000000     4.055000000    -5.616000000
H     5.580000000     4.004000000    -6.332000000
C     3.433000000     4.102000000    -5.901000000
H     3.045000000     3.749000000    -6.853000000
C     2.407000000     4.403000000    -5.004000000
O     1.114000000     4.735000000    -5.394000000
C     0.137000000     3.753000000    -5.342000000
C    -1.190000000     4.163000000    -5.259000000
H    -1.368000000     5.230000000    -5.159000000
C    -2.222000000     3.240000000    -5.085000000
O    -3.546000000     3.663000000    -4.982000000
C    -4.530000000     3.010000000    -4.303000000
C    -5.419000000     2.248000000    -5.054000000
H    -5.249000000     2.200000000    -6.127000000
C    -6.472000000     1.485000000    -4.379000000
H    -7.110000000     0.785000000    -4.913000000
C    -6.648000000     1.653000000    -2.968000000
H    -7.399000000     1.077000000    -2.432000000
C    -5.663000000     2.411000000    -2.284000000
C    -4.603000000     3.042000000    -2.932000000
H    -3.800000000     3.488000000    -2.350000000
C    -1.642000000     1.991000000     0.236000000
H    -2.411000000     2.452000000    -0.379000000
C    -0.970000000     0.860000000    -0.241000000
H    -1.175000000     0.440000000    -1.222000000
C     0.103000000     0.354000000     0.471000000
H     0.595000000    -0.465000000    -0.052000000
C     0.396000000     0.841000000     1.681000000
H     1.213000000     0.372000000     2.223000000
C    -0.202000000     2.012000000     2.178000000
H     0.110000000     2.417000000     3.137000000
C    -1.153000000     2.669000000     1.413000000
C    -1.883000000     3.934000000     1.934000000
O    -1.402000000     4.439000000     2.949000000
O    -2.902000000     4.284000000     1.337000000
O    -5.564000000     5.190000000     1.142000000
H    -5.354000000     6.113000000     1.283000000
H    -4.743000000     4.729000000     1.311000000
O    -1.736000000     7.215000000     0.957000000
H    -0.911000000     7.658000000     0.758000000
H    -1.565000000     6.743000000     1.772000000
O    -5.763000000     3.877000000     4.173000000
H    -5.079000000     4.484000000     3.889000000
H    -5.499000000     3.032000000     3.809000000
O    -2.063000000     6.896000000    -3.297000000
H    -1.118000000     7.024000000    -3.216000000
H    -2.272000000     6.232000000    -2.641000000
O     1.182000000     8.673000000     3.181000000
H     0.797000000     7.796000000     3.185000000
H     2.045000000     8.554000000     2.783000000
O     0.800000000     5.986000000     2.347000000
H     1.266000000     6.128000000     1.523000000
H     0.176000000     5.287000000     2.151000000
O    -0.780000000     4.722000000     6.004000000
H    -0.935000000     4.440000000     5.102000000
H    -1.438000000     5.399000000     6.159000000
O    -3.600000000     5.564000000     3.919000000
H    -2.999000000     5.828000000     4.616000000
H    -3.110000000     4.918000000     3.411000000
O     0.495000000     8.499000000     0.047000000
H     0.918000000     7.861000000    -0.528000000
H     1.115000000     9.227000000     0.094000000
O    -6.735000000     7.288000000     4.576000000
H    -6.177000000     6.876000000     3.917000000
H    -7.627000000     7.082000000     4.297000000
O    -1.629000000    10.241000000    -0.098000000
H    -1.173000000     9.409000000     0.029000000
H    -0.936000000    10.862000000    -0.324000000
O    -2.618000000     9.209000000     4.783000000
H    -2.990000000     8.329000000     4.839000000
H    -2.471000000     9.465000000     5.694000000
O    -2.476000000     5.214000000    -1.017000000
H    -2.052000000     6.036000000    -0.771000000
H    -2.827000000     4.871000000    -0.196000000
O    -4.195000000     7.727000000     2.273000000
H    -3.543000000     7.617000000     1.581000000
H    -3.976000000     7.055000000     2.919000000
O     2.276000000     5.985000000    -0.438000000
H     1.677000000     5.244000000    -0.526000000
H     2.994000000     5.786000000    -1.038000000
O    -8.092000000     5.000000000    -0.104000000
H    -8.071000000     4.043000000    -0.061000000
H    -7.305000000     5.277000000     0.365000000
O    -2.557000000     6.608000000     6.593000000
H    -2.042000000     6.984000000     7.307000000
H    -3.400000000     6.394000000     6.992000000
O     1.405000000     5.875000000     4.990000000
H     0.636000000     5.445000000     5.363000000
H     1.270000000     5.830000000     4.043000000
O     0.138000000     4.305000000    -0.797000000
H     0.107000000     3.373000000    -0.583000000
H    -0.780000000     4.559000000    -0.892000000
