215
-1460.07362
C     4.522000000     0.010000000    -2.670000000
H     4.079000000    -0.904000000    -3.056000000
C     4.792000000     0.152000000    -1.253000000
C     5.303000000     1.325000000    -0.711000000
H     5.470000000     1.377000000     0.361000000
C     4.236000000    -0.915000000    -0.306000000
O     4.443000000    -2.203000000    -0.895000000
H     3.150000000    -0.805000000    -0.174000000
O     4.819000000    -0.822000000     0.994000000
C     4.145000000    -0.970000000     2.178000000
C     3.620000000     0.127000000     2.836000000
H     3.840000000     1.165000000     2.601000000
C     2.717000000    -0.004000000     3.932000000
O     2.130000000     1.176000000     4.362000000
C     2.250000000    -1.255000000     4.287000000
C     1.260000000    -1.500000000     5.401000000
H     1.407000000    -2.472000000     5.876000000
C    -0.134000000    -1.345000000     4.815000000
C    -0.717000000    -2.529000000     4.280000000
H    -0.216000000    -3.478000000     4.448000000
H     1.399000000    -0.718000000     6.150000000
C     2.739000000    -2.362000000     3.599000000
H     2.366000000    -3.371000000     3.755000000
C     3.630000000    -2.241000000     2.491000000
C     4.107000000    -3.458000000     1.747000000
H     4.003000000    -4.376000000     2.330000000
H     5.174000000    -3.387000000     1.527000000
C     3.298000000    -3.765000000     0.489000000
C     2.250000000    -4.682000000     0.573000000
H     2.101000000    -5.036000000     1.590000000
C     3.458000000    -3.109000000    -0.766000000
C     2.650000000    -3.373000000    -1.864000000
H     2.797000000    -2.894000000    -2.828000000
C     1.517000000    -4.139000000    -1.696000000
O     0.723000000    -4.197000000    -2.799000000
C    -0.392000000    -3.239000000    -2.740000000
C    -0.639000000    -2.500000000    -4.059000000
C    -1.918000000    -2.010000000    -4.328000000
H    -2.670000000    -2.287000000    -3.593000000
C     0.344000000    -2.260000000    -4.993000000
H     1.364000000    -2.585000000    -4.802000000
O    -1.554000000    -4.110000000    -2.368000000
H    -0.357000000    -2.467000000    -1.957000000
C     1.337000000    -4.860000000    -0.505000000
C     0.054000000    -5.723000000    -0.374000000
H     0.240000000    -6.480000000     0.390000000
H    -0.128000000    -6.290000000    -1.289000000
C    -1.216000000    -4.852000000    -0.045000000
C    -1.386000000    -4.535000000     1.326000000
H    -0.802000000    -5.066000000     2.073000000
C    -1.988000000    -4.209000000    -1.055000000
C    -3.059000000    -3.415000000    -0.653000000
H    -3.629000000    -2.851000000    -1.386000000
C    -3.328000000    -3.215000000     0.698000000
O    -4.206000000    -2.197000000     1.045000000
C    -3.648000000    -0.985000000     1.606000000
C    -4.180000000     0.323000000     1.061000000
C    -4.375000000     0.416000000    -0.334000000
H    -4.239000000    -0.511000000    -0.885000000
C    -4.556000000     1.421000000     1.873000000
H    -4.480000000     1.273000000     2.947000000
O    -3.786000000    -1.025000000     3.037000000
H    -2.598000000    -0.946000000     1.280000000
C    -2.517000000    -3.817000000     1.675000000
C    -2.806000000    -3.628000000     3.154000000
H    -2.392000000    -4.473000000     3.708000000
H    -3.884000000    -3.671000000     3.324000000
C    -2.063000000    -2.439000000     3.807000000
C    -2.672000000    -1.154000000     3.782000000
C    -2.046000000     0.052000000     4.160000000
H    -2.479000000     1.033000000     3.980000000
C    -0.829000000    -0.104000000     4.784000000
O    -0.098000000     1.033000000     5.058000000
C     0.757000000     1.357000000     3.939000000
H     0.532000000     0.794000000     3.021000000
C     0.530000000     2.790000000     3.527000000
C     1.071000000     3.214000000     2.326000000
H     1.646000000     2.411000000     1.872000000
C    -0.382000000     3.615000000     4.183000000
H    -0.799000000     3.307000000     5.138000000
C    -0.801000000     4.822000000     3.570000000
O    -1.773000000     5.547000000     4.187000000
C    -0.280000000     5.290000000     2.399000000
H    -0.723000000     6.220000000     2.053000000
C     0.765000000     4.511000000     1.838000000
O     1.400000000     4.978000000     0.714000000
C     2.827000000     5.015000000     0.666000000
C     3.598000000     4.249000000    -0.204000000
H     3.076000000     3.663000000    -0.956000000
C     3.498000000     5.927000000     1.509000000
H     2.966000000     6.550000000     2.223000000
C     4.908000000     6.060000000     1.509000000
H     5.396000000     6.664000000     2.270000000
C     5.614000000     5.222000000     0.627000000
H     6.680000000     5.426000000     0.676000000
C     5.009000000     4.336000000    -0.240000000
O     5.765000000     3.594000000    -1.070000000
C     5.448000000     2.412000000    -1.558000000
C     5.231000000     2.326000000    -2.914000000
H     5.434000000     3.222000000    -3.495000000
C     4.786000000     1.164000000    -3.489000000
O     4.503000000     1.204000000    -4.814000000
C     4.080000000     0.149000000    -5.644000000
C     2.780000000    -0.029000000    -6.044000000
H     2.037000000     0.742000000    -5.860000000
C     5.053000000    -0.837000000    -5.878000000
H     6.048000000    -0.558000000    -5.542000000
C     4.677000000    -2.049000000    -6.566000000
H     5.363000000    -2.881000000    -6.706000000
C     3.417000000    -2.192000000    -6.980000000
H     3.050000000    -3.022000000    -7.578000000
C     2.430000000    -1.167000000    -6.806000000
O     1.088000000    -1.415000000    -7.169000000
C     0.097000000    -1.577000000    -6.201000000
C    -1.189000000    -1.201000000    -6.478000000
H    -1.403000000    -0.773000000    -7.454000000
C    -2.190000000    -1.383000000    -5.546000000
O    -3.523000000    -1.076000000    -5.891000000
C    -4.478000000    -0.627000000    -5.034000000
C    -4.183000000     0.223000000    -3.999000000
H    -3.133000000     0.430000000    -3.805000000
C    -5.804000000    -0.952000000    -5.344000000
H    -5.958000000    -1.620000000    -6.188000000
C    -6.817000000    -0.537000000    -4.524000000
H    -7.843000000    -0.802000000    -4.765000000
C    -6.554000000     0.282000000    -3.390000000
H    -7.382000000     0.770000000    -2.882000000
C    -5.211000000     0.748000000    -3.198000000
O    -4.987000000     1.786000000    -2.279000000
C    -4.849000000     1.629000000    -0.894000000
C    -5.175000000     2.616000000    -0.035000000
H    -5.680000000     3.436000000    -0.541000000
C    -5.044000000     2.590000000     1.303000000
O    -5.651000000     3.653000000     2.015000000
C    -5.031000000     4.122000000     3.206000000
C    -5.758000000     4.315000000     4.400000000
H    -6.809000000     4.060000000     4.505000000
C    -5.179000000     4.864000000     5.517000000
H    -5.780000000     4.851000000     6.423000000
C    -3.818000000     5.182000000     5.454000000
H    -3.307000000     5.516000000     6.353000000
C    -3.081000000     5.076000000     4.237000000
C    -3.688000000     4.568000000     3.119000000
H    -3.103000000     4.479000000     2.208000000
C     0.390000000     0.887000000    -1.865000000
H     0.856000000     0.801000000    -2.844000000
C     0.674000000    -0.120000000    -0.938000000
H     1.278000000    -0.984000000    -1.202000000
C     0.107000000    -0.031000000     0.331000000
H     0.153000000    -0.916000000     0.994000000
C    -0.605000000     1.104000000     0.660000000
H    -1.074000000     1.214000000     1.634000000
C    -0.932000000     2.039000000    -0.330000000
H    -1.706000000     2.773000000    -0.118000000
C    -0.448000000     1.948000000    -1.612000000
C    -0.812000000     3.023000000    -2.618000000
O    -1.469000000     4.043000000    -2.329000000
O    -0.335000000     2.964000000    -3.715000000
O    -3.232000000     7.747000000    -5.393000000
H    -3.706000000     7.077000000    -5.886000000
H    -2.310000000     7.574000000    -5.580000000
O    -4.030000000     7.565000000    -2.673000000
H    -4.824000000     8.079000000    -2.527000000
H    -3.728000000     7.832000000    -3.541000000
O    -1.839000000     5.170000000    -8.359000000
H    -1.667000000     4.911000000    -7.454000000
H    -2.258000000     4.404000000    -8.752000000
O    -0.428000000     7.485000000    -5.769000000
H    -0.205000000     7.119000000    -4.914000000
H     0.265000000     8.121000000    -5.946000000
O    -3.999000000     4.646000000    -3.241000000
H    -4.045000000     5.532000000    -2.880000000
H    -3.200000000     4.276000000    -2.864000000
O    -4.566000000     5.684000000    -6.376000000
H    -4.510000000     4.787000000    -6.044000000
H    -5.504000000     5.877000000    -6.387000000
O     0.896000000     5.343000000    -7.247000000
H     0.175000000     5.514000000    -6.640000000
H     0.756000000     4.441000000    -7.536000000
O    -1.583000000     4.316000000    -5.568000000
H    -1.145000000     3.877000000    -4.838000000
H    -2.395000000     4.655000000    -5.192000000
O    -0.432000000     1.592000000    -6.175000000
H    -0.227000000     2.018000000    -5.343000000
H    -1.377000000     1.443000000    -6.141000000
O     4.263000000     5.020000000    -5.260000000
H     3.521000000     4.785000000    -4.703000000
H     3.876000000     5.528000000    -5.973000000
O    -4.184000000     3.076000000    -5.755000000
H    -4.231000000     3.199000000    -4.807000000
H    -5.081000000     2.865000000    -6.015000000
O    -1.955000000     5.968000000    -0.710000000
H    -1.850000000     5.233000000    -1.314000000
H    -1.073000000     6.325000000    -0.610000000
O     2.424000000     3.912000000    -3.379000000
H     2.598000000     3.170000000    -3.957000000
H     1.586000000     3.704000000    -2.967000000
O     3.223000000     6.697000000    -2.355000000
H     2.893000000     6.434000000    -1.496000000
H     3.286000000     5.879000000    -2.848000000
O    -0.059000000     6.419000000    -3.366000000
H    -0.579000000     5.620000000    -3.282000000
H     0.132000000     6.676000000    -2.463000000
O    -4.591000000     6.975000000     0.315000000
H    -3.864000000     6.620000000    -0.196000000
H    -4.663000000     7.885000000     0.027000000
O     0.811000000     2.766000000    -8.307000000
H     0.285000000     2.582000000    -7.528000000
H     1.156000000     1.912000000    -8.569000000
O    -6.811000000     4.341000000    -3.245000000
H    -6.809000000     4.592000000    -4.168000000
H    -5.887000000     4.211000000    -3.029000000
O     0.235000000     7.767000000    -0.896000000
H     1.182000000     7.908000000    -0.891000000
H    -0.090000000     8.296000000    -0.167000000
