215
-1462.68538
C     1.142000000     1.019000000     4.742000000
H     2.170000000     0.832000000     4.442000000
C     0.269000000    -0.018000000     4.591000000
C    -1.077000000     0.226000000     4.845000000
H    -1.808000000    -0.561000000     4.679000000
C     0.689000000    -1.318000000     3.919000000
O     2.071000000    -1.638000000     4.123000000
H     0.646000000    -1.136000000     2.835000000
O    -0.179000000    -2.442000000     4.217000000
C    -0.577000000    -3.182000000     3.183000000
C    -1.888000000    -3.048000000     2.814000000
H    -2.577000000    -2.413000000     3.365000000
C    -2.404000000    -3.683000000     1.689000000
O    -3.693000000    -3.255000000     1.291000000
C    -1.592000000    -4.482000000     0.941000000
C    -2.104000000    -5.129000000    -0.305000000
H    -1.632000000    -6.085000000    -0.541000000
C    -1.929000000    -4.212000000    -1.535000000
C    -0.675000000    -4.289000000    -2.200000000
H    -0.006000000    -5.113000000    -1.962000000
H    -3.163000000    -5.360000000    -0.172000000
C    -0.243000000    -4.726000000     1.305000000
H     0.302000000    -5.385000000     0.634000000
C     0.225000000    -4.050000000     2.455000000
C     1.623000000    -4.283000000     2.909000000
H     2.110000000    -5.221000000     2.635000000
H     1.792000000    -4.284000000     3.988000000
C     2.530000000    -3.232000000     2.324000000
C     3.099000000    -3.610000000     1.088000000
H     2.829000000    -4.553000000     0.619000000
C     2.761000000    -1.992000000     2.942000000
C     3.645000000    -1.087000000     2.325000000
H     3.884000000    -0.119000000     2.757000000
C     4.274000000    -1.479000000     1.154000000
O     4.978000000    -0.547000000     0.467000000
C     4.318000000     0.319000000    -0.438000000
C     4.563000000     1.769000000    -0.230000000
C     4.412000000     2.648000000    -1.325000000
H     3.941000000     2.258000000    -2.224000000
C     4.870000000     2.317000000     0.984000000
H     5.158000000     1.652000000     1.793000000
O     4.549000000    -0.116000000    -1.787000000
H     3.242000000     0.175000000    -0.256000000
C     3.934000000    -2.650000000     0.472000000
C     4.516000000    -2.924000000    -0.901000000
H     4.561000000    -4.013000000    -0.967000000
H     5.579000000    -2.680000000    -0.968000000
C     3.728000000    -2.338000000    -2.032000000
C     2.807000000    -3.291000000    -2.613000000
H     2.713000000    -4.238000000    -2.087000000
C     3.743000000    -1.011000000    -2.400000000
C     3.065000000    -0.731000000    -3.585000000
H     3.133000000     0.307000000    -3.902000000
C     2.129000000    -1.587000000    -4.176000000
O     1.145000000    -1.006000000    -4.935000000
C    -0.102000000    -0.594000000    -4.334000000
C    -0.501000000     0.793000000    -4.861000000
C     0.425000000     1.882000000    -4.849000000
H     1.457000000     1.719000000    -4.549000000
C    -1.813000000     1.072000000    -5.236000000
H    -2.566000000     0.294000000    -5.339000000
O    -1.106000000    -1.546000000    -4.633000000
H    -0.080000000    -0.433000000    -3.246000000
C     1.993000000    -2.848000000    -3.673000000
C     0.837000000    -3.739000000    -4.193000000
H     1.093000000    -4.800000000    -4.211000000
H     0.588000000    -3.405000000    -5.203000000
C    -0.419000000    -3.491000000    -3.366000000
C    -1.370000000    -2.484000000    -3.706000000
C    -2.497000000    -2.293000000    -2.908000000
H    -3.122000000    -1.436000000    -3.145000000
C    -2.787000000    -3.137000000    -1.907000000
O    -3.853000000    -2.763000000    -1.092000000
C    -3.666000000    -2.264000000     0.288000000
H    -2.656000000    -1.834000000     0.354000000
C    -4.636000000    -1.163000000     0.580000000
C    -5.236000000    -0.905000000     1.837000000
H    -5.090000000    -1.594000000     2.664000000
C    -4.798000000    -0.174000000    -0.444000000
H    -4.218000000    -0.394000000    -1.337000000
C    -5.654000000     0.946000000    -0.320000000
O    -5.686000000     2.054000000    -1.167000000
C    -6.241000000     1.100000000     0.964000000
H    -6.826000000     2.005000000     1.109000000
C    -6.112000000     0.134000000     1.956000000
O    -6.588000000     0.382000000     3.246000000
C    -5.778000000     0.269000000     4.380000000
C    -4.678000000     1.037000000     4.740000000
H    -4.313000000     1.903000000     4.192000000
C    -6.082000000    -0.854000000     5.105000000
H    -7.025000000    -1.350000000     4.890000000
C    -5.301000000    -1.243000000     6.173000000
H    -5.488000000    -2.086000000     6.833000000
C    -4.130000000    -0.525000000     6.511000000
H    -3.364000000    -0.825000000     7.221000000
C    -3.887000000     0.644000000     5.790000000
O    -2.805000000     1.456000000     6.110000000
C    -1.460000000     1.349000000     5.590000000
C    -0.556000000     2.388000000     5.791000000
H    -0.836000000     3.287000000     6.335000000
C     0.791000000     2.247000000     5.303000000
O     1.618000000     3.333000000     5.349000000
C     2.970000000     3.223000000     5.047000000
C     3.483000000     3.743000000     3.877000000
H     2.838000000     4.233000000     3.152000000
C     3.752000000     2.455000000     5.870000000
H     3.345000000     2.043000000     6.790000000
C     5.059000000     2.160000000     5.471000000
H     5.739000000     1.740000000     6.208000000
C     5.612000000     2.846000000     4.399000000
H     6.693000000     2.886000000     4.288000000
C     4.862000000     3.621000000     3.551000000
O     5.435000000     4.213000000     2.408000000
C     5.216000000     3.661000000     1.131000000
C     5.066000000     4.531000000     0.006000000
H     5.209000000     5.602000000     0.125000000
C     4.588000000     4.013000000    -1.171000000
O     4.345000000     4.861000000    -2.185000000
C     3.890000000     4.469000000    -3.358000000
C     2.493000000     4.597000000    -3.644000000
H     1.800000000     4.837000000    -2.841000000
C     4.765000000     4.081000000    -4.384000000
H     5.809000000     3.977000000    -4.097000000
C     4.360000000     3.777000000    -5.707000000
H     5.059000000     3.414000000    -6.456000000
C     2.989000000     3.890000000    -5.988000000
H     2.584000000     3.702000000    -6.979000000
C     2.093000000     4.310000000    -4.951000000
O     0.775000000     4.323000000    -5.091000000
C    -0.014000000     3.192000000    -5.150000000
C    -1.375000000     3.478000000    -5.286000000
H    -1.669000000     4.520000000    -5.188000000
C    -2.257000000     2.433000000    -5.347000000
O    -3.626000000     2.666000000    -5.456000000
C    -4.667000000     2.269000000    -4.638000000
C    -5.739000000     1.515000000    -5.256000000
H    -5.815000000     1.414000000    -6.336000000
C    -6.815000000     1.067000000    -4.496000000
H    -7.598000000     0.491000000    -4.982000000
C    -6.814000000     1.175000000    -3.089000000
H    -7.546000000     0.655000000    -2.475000000
C    -5.694000000     1.810000000    -2.488000000
C    -4.602000000     2.307000000    -3.227000000
H    -3.721000000     2.637000000    -2.681000000
C    -1.624000000     1.260000000    -0.030000000
H    -2.655000000     1.464000000    -0.307000000
C    -0.949000000     0.285000000    -0.680000000
H    -1.405000000    -0.224000000    -1.525000000
C     0.371000000     0.092000000    -0.350000000
H     0.910000000    -0.739000000    -0.868000000
C     0.935000000     0.669000000     0.792000000
H     1.945000000     0.457000000     1.135000000
C     0.266000000     1.722000000     1.380000000
H     0.681000000     2.247000000     2.236000000
C    -1.074000000     1.967000000     1.110000000
C    -1.934000000     2.843000000     1.989000000
O    -1.390000000     3.721000000     2.632000000
O    -3.127000000     2.851000000     1.861000000
O    -3.572000000     4.207000000    -0.664000000
H    -3.597000000     4.908000000    -0.013000000
H    -3.322000000     3.428000000    -0.168000000
O     0.258000000     6.553000000    -0.827000000
H     0.707000000     5.966000000    -0.219000000
H     0.677000000     7.403000000    -0.694000000
O     0.493000000     8.531000000     2.253000000
H     0.662000000     7.597000000     2.125000000
H     0.115000000     8.587000000     3.131000000
O    -1.247000000     6.878000000    -3.070000000
H    -2.053000000     7.106000000    -2.607000000
H    -0.574000000     6.868000000    -2.389000000
O    -3.718000000     4.379000000     6.705000000
H    -3.185000000     4.299000000     5.913000000
H    -3.897000000     5.316000000     6.779000000
O    -2.412000000     6.116000000     1.465000000
H    -1.550000000     6.482000000     1.267000000
H    -2.225000000     5.291000000     1.912000000
O    -0.126000000     6.359000000     3.997000000
H    -0.726000000     5.839000000     4.532000000
H     0.203000000     5.746000000     3.340000000
O    -5.193000000     4.461000000     2.200000000
H    -4.470000000     3.851000000     2.049000000
H    -5.981000000     3.939000000     2.051000000
O    -5.359000000     5.390000000    -2.477000000
H    -4.639000000     6.004000000    -2.619000000
H    -5.081000000     4.863000000    -1.728000000
O    -2.689000000     4.917000000     4.359000000
H    -3.592000000     4.816000000     4.059000000
H    -2.167000000     4.446000000     3.710000000
O    -5.306000000     6.883000000     3.654000000
H    -5.299000000     6.162000000     3.024000000
H    -4.831000000     7.589000000     3.215000000
O    -0.959000000     3.794000000    -2.060000000
H    -1.810000000     3.810000000    -1.622000000
H    -0.874000000     4.663000000    -2.451000000
O    -2.044000000     3.565000000     8.844000000
H    -2.521000000     3.283000000     8.064000000
H    -2.307000000     4.477000000     8.969000000
O     0.606000000     5.000000000     1.641000000
H    -0.114000000     4.508000000     2.035000000
H     0.912000000     4.446000000     0.923000000
O    -8.184000000     3.981000000    -0.924000000
H    -7.481000000     3.359000000    -1.111000000
H    -7.747000000     4.713000000    -0.488000000
O    -3.048000000     8.315000000     3.413000000
H    -2.939000000     8.251000000     4.362000000
H    -2.990000000     7.412000000     3.103000000
O     2.212000000     6.831000000     6.305000000
H     1.726000000     6.233000000     5.737000000
H     1.718000000     6.839000000     7.124000000
O    -4.652000000     6.754000000     6.491000000
H    -4.781000000     6.801000000     5.543000000
H    -5.480000000     7.062000000     6.861000000
O     1.316000000     3.638000000    -0.610000000
H     1.955000000     2.930000000    -0.688000000
H     0.698000000     3.483000000    -1.325000000
