215
-1477.95789
C     1.292000000     1.500000000     4.493000000
H     2.292000000     1.085000000     4.393000000
C     0.192000000     0.651000000     4.422000000
C    -1.078000000     1.156000000     4.600000000
H    -1.931000000     0.490000000     4.499000000
C     0.403000000    -0.782000000     4.070000000
O     1.736000000    -1.296000000     4.500000000
H     0.403000000    -0.767000000     2.970000000
O    -0.590000000    -1.616000000     4.651000000
C    -1.185000000    -2.510000000     3.901000000
C    -2.333000000    -2.136000000     3.202000000
H    -2.835000000    -1.211000000     3.474000000
C    -2.859000000    -2.859000000     2.133000000
O    -3.960000000    -2.354000000     1.577000000
C    -2.167000000    -3.974000000     1.755000000
C    -2.730000000    -4.782000000     0.592000000
H    -2.311000000    -5.789000000     0.638000000
C    -2.439000000    -4.226000000    -0.821000000
C    -1.359000000    -4.707000000    -1.571000000
H    -0.758000000    -5.508000000    -1.148000000
H    -3.803000000    -4.915000000     0.747000000
C    -0.993000000    -4.427000000     2.425000000
H    -0.480000000    -5.349000000     2.165000000
C    -0.476000000    -3.599000000     3.415000000
C     0.926000000    -3.993000000     3.891000000
H     1.030000000    -5.077000000     3.971000000
H     0.959000000    -3.613000000     4.914000000
C     2.017000000    -3.245000000     3.095000000
C     2.695000000    -3.813000000     1.982000000
H     2.252000000    -4.722000000     1.583000000
C     2.450000000    -1.983000000     3.504000000
C     3.416000000    -1.287000000     2.833000000
H     3.697000000    -0.311000000     3.220000000
C     4.044000000    -1.861000000     1.700000000
O     4.911000000    -1.144000000     0.971000000
C     4.482000000    -0.501000000    -0.240000000
C     5.087000000     0.864000000    -0.483000000
C     5.333000000     1.379000000    -1.740000000
H     5.310000000     0.761000000    -2.635000000
C     5.081000000     1.777000000     0.609000000
H     4.748000000     1.415000000     1.579000000
O     4.870000000    -1.323000000    -1.379000000
H     3.389000000    -0.384000000    -0.224000000
C     3.659000000    -3.112000000     1.234000000
C     4.226000000    -3.722000000    -0.038000000
H     4.199000000    -4.806000000     0.092000000
H     5.271000000    -3.434000000    -0.174000000
C     3.410000000    -3.359000000    -1.236000000
C     2.378000000    -4.109000000    -1.787000000
H     2.075000000    -5.074000000    -1.388000000
C     3.850000000    -2.198000000    -1.893000000
C     3.049000000    -1.649000000    -2.931000000
H     3.345000000    -0.718000000    -3.407000000
C     1.994000000    -2.390000000    -3.369000000
O     1.129000000    -1.675000000    -4.259000000
C    -0.173000000    -1.299000000    -3.822000000
C    -0.464000000     0.126000000    -4.270000000
C     0.570000000     1.064000000    -4.505000000
H     1.609000000     0.846000000    -4.271000000
C    -1.721000000     0.595000000    -4.613000000
H    -2.569000000    -0.080000000    -4.534000000
O    -1.165000000    -2.295000000    -4.232000000
H    -0.221000000    -1.318000000    -2.723000000
C     1.633000000    -3.625000000    -2.842000000
C     0.438000000    -4.474000000    -3.385000000
H     0.632000000    -5.547000000    -3.324000000
H     0.356000000    -4.343000000    -4.466000000
C    -0.883000000    -4.081000000    -2.713000000
C    -1.589000000    -3.005000000    -3.204000000
C    -2.705000000    -2.575000000    -2.559000000
H    -3.304000000    -1.753000000    -2.943000000
C    -3.116000000    -3.176000000    -1.374000000
O    -4.190000000    -2.722000000    -0.678000000
C    -3.794000000    -1.689000000     0.296000000
H    -2.766000000    -1.382000000     0.056000000
C    -4.757000000    -0.464000000     0.339000000
C    -5.296000000     0.013000000     1.553000000
H    -5.207000000    -0.497000000     2.509000000
C    -5.159000000     0.192000000    -0.819000000
H    -4.848000000    -0.315000000    -1.729000000
C    -5.985000000     1.355000000    -0.778000000
O    -6.263000000     2.050000000    -1.934000000
C    -6.461000000     1.846000000     0.443000000
H    -7.113000000     2.710000000     0.343000000
C    -6.090000000     1.159000000     1.601000000
O    -6.585000000     1.615000000     2.828000000
C    -5.750000000     1.596000000     3.933000000
C    -4.561000000     2.357000000     3.874000000
H    -4.374000000     3.000000000     3.018000000
C    -6.015000000     0.702000000     4.964000000
H    -6.965000000     0.176000000     5.003000000
C    -5.127000000     0.638000000     6.002000000
H    -5.340000000    -0.035000000     6.829000000
C    -3.949000000     1.430000000     6.049000000
H    -3.276000000     1.374000000     6.901000000
C    -3.673000000     2.291000000     4.942000000
O    -2.537000000     3.045000000     5.084000000
C    -1.313000000     2.489000000     4.731000000
C    -0.224000000     3.389000000     4.781000000
H    -0.415000000     4.458000000     4.826000000
C     1.066000000     2.898000000     4.625000000
O     2.100000000     3.832000000     4.656000000
C     3.385000000     3.713000000     4.369000000
C     3.739000000     3.776000000     3.041000000
H     2.957000000     3.900000000     2.296000000
C     4.365000000     3.599000000     5.377000000
H     4.173000000     3.344000000     6.416000000
C     5.735000000     3.524000000     5.017000000
H     6.430000000     3.264000000     5.812000000
C     6.060000000     3.582000000     3.681000000
H     7.116000000     3.669000000     3.441000000
C     5.096000000     3.740000000     2.675000000
O     5.517000000     4.028000000     1.400000000
C     5.441000000     3.113000000     0.410000000
C     5.815000000     3.593000000    -0.844000000
H     6.027000000     4.656000000    -0.932000000
C     5.716000000     2.764000000    -1.941000000
O     5.900000000     3.265000000    -3.175000000
C     4.936000000     3.227000000    -4.114000000
C     3.540000000     3.298000000    -3.819000000
H     3.209000000     3.465000000    -2.797000000
C     5.344000000     3.200000000    -5.455000000
H     6.416000000     3.166000000    -5.626000000
C     4.401000000     3.160000000    -6.499000000
H     4.710000000     3.171000000    -7.541000000
C     3.030000000     3.212000000    -6.197000000
H     2.329000000     3.332000000    -7.019000000
C     2.613000000     3.288000000    -4.877000000
O     1.275000000     3.425000000    -4.596000000
C     0.309000000     2.389000000    -4.806000000
C    -0.945000000     2.767000000    -5.161000000
H    -1.162000000     3.817000000    -5.342000000
C    -1.993000000     1.883000000    -5.167000000
O    -3.275000000     2.358000000    -5.472000000
C    -4.428000000     1.788000000    -4.980000000
C    -5.284000000     0.966000000    -5.746000000
H    -5.081000000     0.701000000    -6.781000000
C    -6.508000000     0.499000000    -5.271000000
H    -7.120000000    -0.177000000    -5.863000000
C    -6.838000000     0.876000000    -3.902000000
H    -7.806000000     0.634000000    -3.471000000
C    -5.977000000     1.682000000    -3.142000000
C    -4.822000000     2.199000000    -3.724000000
H    -4.186000000     2.875000000    -3.157000000
C    -1.417000000     2.252000000    -0.561000000
H    -2.358000000     2.742000000    -0.795000000
C    -1.048000000     0.950000000    -0.883000000
H    -1.680000000     0.432000000    -1.599000000
C     0.152000000     0.464000000    -0.458000000
H     0.506000000    -0.566000000    -0.796000000
C     0.899000000     1.198000000     0.467000000
H     1.804000000     0.729000000     0.843000000
C     0.520000000     2.516000000     0.850000000
H     1.128000000     3.166000000     1.475000000
C    -0.651000000     3.015000000     0.306000000
C    -1.019000000     4.427000000     0.686000000
O    -0.308000000     5.174000000     1.399000000
O    -2.070000000     4.843000000     0.243000000
O     0.568000000     8.154000000    -1.915000000
H     0.422000000     7.219000000    -2.059000000
H     0.940000000     8.205000000    -1.034000000
O    -6.279000000     5.661000000    -2.245000000
H    -5.517000000     5.777000000    -2.813000000
H    -5.981000000     5.952000000    -1.383000000
O     1.038000000     9.024000000     0.687000000
H     0.467000000     9.782000000     0.562000000
H     1.897000000     9.401000000     0.879000000
O     3.710000000     7.478000000     3.203000000
H     2.984000000     6.971000000     2.840000000
H     3.748000000     8.265000000     2.660000000
O     3.852000000     6.705000000    -1.430000000
H     3.222000000     6.305000000    -0.830000000
H     3.877000000     6.113000000    -2.181000000
O    -2.134000000     6.509000000    -4.211000000
H    -2.843000000     7.129000000    -4.037000000
H    -2.250000000     5.822000000    -3.555000000
O    -3.273000000     5.797000000     5.695000000
H    -2.961000000     5.991000000     4.811000000
H    -3.543000000     4.880000000     5.659000000
O     0.386000000     7.109000000     6.390000000
H     0.054000000     6.891000000     5.519000000
H     1.335000000     7.005000000     6.318000000
O    -2.244000000     7.637000000    -0.179000000
H    -1.936000000     6.757000000     0.038000000
H    -1.501000000     8.048000000    -0.623000000
O    -0.514000000     9.860000000     3.783000000
H    -0.099000000     9.081000000     3.413000000
H    -1.392000000     9.868000000     3.402000000
O     0.700000000     7.244000000     2.759000000
H     0.407000000     6.381000000     2.466000000
H     0.782000000     7.755000000     1.954000000
O    -4.457000000     5.003000000     1.328000000
H    -3.674000000     4.603000000     0.949000000
H    -4.540000000     5.842000000     0.875000000
O    -2.805000000     6.249000000     3.201000000
H    -2.139000000     6.088000000     2.533000000
H    -3.630000000     6.013000000     2.777000000
O    -3.372000000     5.506000000    -2.000000000
H    -3.531000000     6.438000000    -1.854000000
H    -2.872000000     5.225000000    -1.233000000
O    -6.531000000     5.091000000     3.272000000
H    -7.052000000     5.664000000     2.708000000
H    -5.812000000     4.795000000     2.714000000
O     1.772000000     5.616000000    -0.229000000
H     1.165000000     5.534000000     0.506000000
H     1.286000000     5.277000000    -0.980000000
O    -2.985000000     9.702000000     1.701000000
H    -3.819000000     9.651000000     2.169000000
H    -2.791000000     8.796000000     1.459000000
O    -4.956000000     7.283000000    -0.398000000
H    -4.127000000     7.758000000    -0.360000000
H    -5.605000000     7.908000000    -0.074000000
O     0.525000000     5.194000000    -2.675000000
H     0.455000000     5.783000000    -3.426000000
H     0.643000000     4.326000000    -3.061000000
