215
-1454.37511
C     0.620000000     0.648000000     4.487000000
H     1.597000000     0.670000000     4.012000000
C    -0.204000000    -0.441000000     4.456000000
C    -1.457000000    -0.340000000     5.106000000
H    -2.195000000    -1.136000000     5.055000000
C     0.057000000    -1.715000000     3.698000000
O     1.305000000    -2.157000000     4.149000000
H     0.041000000    -1.341000000     2.664000000
O    -0.875000000    -2.754000000     3.863000000
C    -1.371000000    -3.347000000     2.753000000
C    -2.614000000    -2.960000000     2.302000000
H    -3.285000000    -2.318000000     2.867000000
C    -3.047000000    -3.447000000     1.093000000
O    -4.139000000    -2.898000000     0.552000000
C    -2.244000000    -4.335000000     0.392000000
C    -2.709000000    -4.848000000    -1.002000000
H    -2.348000000    -5.841000000    -1.280000000
C    -2.168000000    -3.942000000    -2.068000000
C    -0.877000000    -4.222000000    -2.675000000
H    -0.294000000    -5.093000000    -2.386000000
H    -3.799000000    -4.802000000    -0.961000000
C    -1.083000000    -4.844000000     0.902000000
H    -0.532000000    -5.620000000     0.377000000
C    -0.623000000    -4.333000000     2.115000000
C     0.779000000    -4.704000000     2.728000000
H     1.034000000    -5.666000000     2.279000000
H     0.786000000    -4.820000000     3.814000000
C     1.904000000    -3.727000000     2.380000000
C     2.643000000    -3.946000000     1.256000000
H     2.497000000    -4.743000000     0.532000000
C     2.155000000    -2.550000000     3.136000000
C     3.301000000    -1.689000000     2.877000000
H     3.476000000    -0.788000000     3.458000000
C     3.920000000    -1.941000000     1.693000000
O     4.770000000    -0.967000000     1.232000000
C     4.261000000    -0.133000000     0.172000000
C     4.743000000     1.300000000     0.417000000
C     4.931000000     2.182000000    -0.613000000
H     4.802000000     1.770000000    -1.610000000
C     4.780000000     1.812000000     1.715000000
H     4.537000000     1.230000000     2.601000000
O     4.764000000    -0.695000000    -1.115000000
H     3.169000000    -0.266000000     0.184000000
C     3.631000000    -3.047000000     0.922000000
C     4.413000000    -3.361000000    -0.352000000
H     4.498000000    -4.437000000    -0.517000000
H     5.445000000    -3.009000000    -0.297000000
C     3.722000000    -2.794000000    -1.632000000
C     2.744000000    -3.476000000    -2.348000000
H     2.505000000    -4.503000000    -2.084000000
C     3.907000000    -1.440000000    -1.884000000
C     3.343000000    -0.801000000    -2.924000000
H     3.544000000     0.264000000    -3.011000000
C     2.500000000    -1.457000000    -3.800000000
O     1.752000000    -0.663000000    -4.569000000
C     0.392000000    -0.324000000    -4.276000000
C     0.102000000     1.090000000    -4.700000000
C     1.148000000     2.043000000    -4.623000000
H     2.184000000     1.728000000    -4.526000000
C    -1.225000000     1.527000000    -5.081000000
H    -2.090000000     0.887000000    -5.240000000
O    -0.579000000    -1.213000000    -4.796000000
H     0.189000000    -0.396000000    -3.197000000
C     2.193000000    -2.818000000    -3.468000000
C     1.032000000    -3.543000000    -4.159000000
H     1.243000000    -4.613000000    -4.215000000
H     0.987000000    -3.244000000    -5.209000000
C    -0.385000000    -3.334000000    -3.602000000
C    -1.103000000    -2.167000000    -3.909000000
C    -2.289000000    -1.846000000    -3.296000000
H    -2.897000000    -1.020000000    -3.655000000
C    -2.779000000    -2.748000000    -2.332000000
O    -3.974000000    -2.387000000    -1.711000000
C    -3.872000000    -1.843000000    -0.349000000
H    -2.798000000    -1.629000000    -0.247000000
C    -4.639000000    -0.490000000    -0.168000000
C    -5.157000000    -0.176000000     1.070000000
H    -5.050000000    -0.837000000     1.926000000
C    -4.772000000     0.445000000    -1.227000000
H    -4.416000000     0.288000000    -2.242000000
C    -5.304000000     1.702000000    -0.950000000
O    -5.532000000     2.669000000    -1.945000000
C    -5.756000000     1.980000000     0.351000000
H    -6.383000000     2.841000000     0.567000000
C    -5.682000000     1.051000000     1.343000000
O    -6.193000000     1.399000000     2.574000000
C    -5.816000000     0.870000000     3.840000000
C    -4.570000000     1.071000000     4.404000000
H    -3.827000000     1.720000000     3.948000000
C    -6.800000000     0.021000000     4.418000000
H    -7.786000000    -0.108000000     3.978000000
C    -6.495000000    -0.611000000     5.605000000
H    -7.359000000    -1.016000000     6.124000000
C    -5.264000000    -0.300000000     6.246000000
H    -5.096000000    -0.591000000     7.280000000
C    -4.280000000     0.537000000     5.681000000
O    -3.106000000     0.918000000     6.355000000
C    -1.825000000     0.832000000     5.730000000
C    -0.932000000     1.922000000     5.788000000
H    -1.227000000     2.833000000     6.303000000
C     0.297000000     1.806000000     5.178000000
O     1.069000000     2.889000000     5.245000000
C     2.442000000     2.828000000     5.344000000
C     3.141000000     3.205000000     4.249000000
H     2.715000000     3.688000000     3.373000000
C     3.028000000     2.126000000     6.432000000
H     2.426000000     1.701000000     7.232000000
C     4.390000000     2.093000000     6.490000000
H     4.801000000     1.626000000     7.382000000
C     5.171000000     2.572000000     5.427000000
H     6.253000000     2.579000000     5.534000000
C     4.519000000     3.102000000     4.294000000
O     5.239000000     3.625000000     3.270000000
C     5.125000000     3.117000000     1.988000000
C     5.370000000     3.975000000     0.898000000
H     5.553000000     5.021000000     1.132000000
C     5.176000000     3.566000000    -0.421000000
O     5.248000000     4.458000000    -1.523000000
C     4.837000000     4.177000000    -2.775000000
C     3.547000000     4.446000000    -3.144000000
H     2.867000000     4.989000000    -2.494000000
C     5.706000000     3.537000000    -3.653000000
H     6.733000000     3.394000000    -3.328000000
C     5.381000000     3.117000000    -4.975000000
H     6.088000000     2.560000000    -5.585000000
C     4.099000000     3.468000000    -5.352000000
H     3.702000000     3.084000000    -6.288000000
C     3.195000000     4.091000000    -4.432000000
O     1.934000000     4.382000000    -4.877000000
C     0.914000000     3.387000000    -4.919000000
C    -0.360000000     3.794000000    -5.292000000
H    -0.498000000     4.872000000    -5.321000000
C    -1.404000000     2.914000000    -5.367000000
O    -2.659000000     3.455000000    -5.624000000
C    -3.792000000     2.863000000    -5.065000000
C    -4.656000000     2.206000000    -5.982000000
H    -4.487000000     2.174000000    -7.055000000
C    -5.795000000     1.574000000    -5.461000000
H    -6.465000000     0.992000000    -6.089000000
C    -6.184000000     1.794000000    -4.121000000
H    -7.066000000     1.288000000    -3.738000000
C    -5.302000000     2.464000000    -3.288000000
C    -4.124000000     2.967000000    -3.726000000
H    -3.460000000     3.462000000    -3.023000000
C    -0.539000000     2.876000000    -1.118000000
H    -0.771000000     3.769000000    -1.692000000
C    -0.987000000     1.634000000    -1.465000000
H    -1.584000000     1.504000000    -2.364000000
C    -0.534000000     0.506000000    -0.844000000
H    -0.812000000    -0.526000000    -1.181000000
C     0.385000000     0.640000000     0.167000000
H     0.806000000    -0.249000000     0.630000000
C     0.781000000     1.928000000     0.585000000
H     1.508000000     2.038000000     1.386000000
C     0.405000000     3.075000000    -0.131000000
C     0.914000000     4.513000000     0.206000000
O     1.746000000     4.638000000     1.097000000
O     0.496000000     5.572000000    -0.320000000
O    -4.573000000     5.967000000     0.970000000
H    -3.895000000     5.739000000     0.334000000
H    -4.277000000     5.569000000     1.789000000
O     2.309000000     6.915000000    -5.844000000
H     2.310000000     6.581000000    -6.741000000
H     2.218000000     6.134000000    -5.298000000
O     3.439000000     6.363000000    -0.112000000
H     3.843000000     5.561000000    -0.443000000
H     2.661000000     6.063000000     0.359000000
O     4.064000000     7.691000000     2.254000000
H     4.708000000     7.176000000     2.740000000
H     3.966000000     7.229000000     1.422000000
O    -0.162000000     4.350000000     2.994000000
H     0.121000000     3.917000000     3.799000000
H     0.606000000     4.320000000     2.423000000
O     1.037000000     7.226000000     2.000000000
H     1.223000000     6.649000000     1.259000000
H     0.885000000     6.631000000     2.734000000
O    -2.760000000     3.676000000     1.760000000
H    -1.834000000     3.754000000     1.988000000
H    -2.767000000     3.602000000     0.806000000
O     2.381000000     9.865000000     2.160000000
H     2.006000000     9.022000000     2.417000000
H     3.304000000     9.676000000     1.995000000
O    -0.338000000     8.942000000     4.686000000
H     0.256000000     8.263000000     5.005000000
H    -0.434000000     8.758000000     3.752000000
O    -0.297000000     7.665000000    -4.500000000
H     0.154000000     7.520000000    -3.668000000
H     0.301000000     7.317000000    -5.161000000
O    -2.744000000     4.662000000     5.027000000
H    -2.799000000     5.540000000     5.405000000
H    -1.891000000     4.642000000     4.593000000
O    -0.775000000     9.206000000     1.792000000
H    -0.758000000     9.513000000     0.885000000
H    -0.243000000     8.410000000     1.785000000
O     1.570000000     9.482000000    -1.044000000
H     1.622000000    10.431000000    -1.157000000
H     1.425000000     9.361000000    -0.105000000
O    -2.235000000    10.008000000    -0.957000000
H    -3.080000000     9.875000000    -0.528000000
H    -2.181000000     9.306000000    -1.605000000
O     4.269000000     8.386000000    -1.954000000
H     3.401000000     8.790000000    -1.932000000
H     4.200000000     7.639000000    -1.359000000
O    -2.328000000     5.871000000    -0.566000000
H    -1.419000000     6.084000000    -0.354000000
H    -2.570000000     6.504000000    -1.242000000
O    -3.493000000     7.745000000    -2.459000000
H    -4.216000000     8.296000000    -2.757000000
H    -3.343000000     7.135000000    -3.182000000
O     0.920000000     7.152000000    -2.348000000
H     0.627000000     6.547000000    -1.667000000
H     1.206000000     7.930000000    -1.870000000
O     1.595000000     7.221000000     5.469000000
H     2.309000000     7.544000000     6.018000000
H     1.213000000     6.501000000     5.972000000
