215
-1435.03264
C     1.146000000     0.207000000     4.908000000
H     2.141000000    -0.200000000     4.743000000
C     0.030000000    -0.479000000     4.373000000
C    -1.194000000     0.119000000     4.533000000
H    -2.118000000    -0.179000000     4.044000000
C     0.077000000    -1.770000000     3.651000000
O     1.306000000    -2.462000000     4.015000000
H    -0.113000000    -1.526000000     2.596000000
O    -0.990000000    -2.661000000     3.968000000
C    -1.500000000    -3.321000000     2.855000000
C    -2.686000000    -2.871000000     2.380000000
H    -3.196000000    -2.054000000     2.884000000
C    -3.165000000    -3.382000000     1.181000000
O    -4.278000000    -2.766000000     0.753000000
C    -2.488000000    -4.354000000     0.407000000
C    -3.087000000    -4.824000000    -0.927000000
H    -2.911000000    -5.886000000    -1.113000000
C    -2.577000000    -3.851000000    -2.060000000
C    -1.397000000    -4.182000000    -2.742000000
H    -0.922000000    -5.123000000    -2.477000000
H    -4.170000000    -4.830000000    -0.795000000
C    -1.316000000    -4.847000000     0.966000000
H    -0.760000000    -5.629000000     0.456000000
C    -0.869000000    -4.389000000     2.233000000
C     0.485000000    -4.972000000     2.625000000
H     0.529000000    -5.982000000     2.212000000
H     0.514000000    -5.044000000     3.714000000
C     1.649000000    -4.068000000     2.172000000
C     2.184000000    -4.201000000     0.866000000
H     1.919000000    -4.973000000     0.148000000
C     2.048000000    -3.031000000     2.971000000
C     3.121000000    -2.221000000     2.534000000
H     3.439000000    -1.436000000     3.215000000
C     3.719000000    -2.436000000     1.310000000
O     4.712000000    -1.575000000     0.960000000
C     4.211000000    -0.732000000    -0.151000000
C     4.545000000     0.709000000    -0.041000000
C     4.999000000     1.503000000    -1.112000000
H     5.168000000     1.144000000    -2.124000000
C     4.375000000     1.398000000     1.220000000
H     4.047000000     0.826000000     2.084000000
O     4.720000000    -1.301000000    -1.437000000
H     3.111000000    -0.766000000    -0.128000000
C     3.304000000    -3.518000000     0.498000000
C     3.925000000    -3.947000000    -0.799000000
H     3.950000000    -5.028000000    -0.955000000
H     4.991000000    -3.710000000    -0.829000000
C     3.348000000    -3.157000000    -1.967000000
C     2.316000000    -3.713000000    -2.713000000
H     1.962000000    -4.708000000    -2.454000000
C     3.833000000    -1.935000000    -2.336000000
C     3.191000000    -1.180000000    -3.334000000
H     3.554000000    -0.209000000    -3.660000000
C     2.070000000    -1.663000000    -3.961000000
O     1.358000000    -0.741000000    -4.723000000
C     0.146000000    -0.282000000    -4.046000000
C     0.054000000     1.274000000    -4.132000000
C     1.114000000     2.057000000    -4.614000000
H     2.084000000     1.660000000    -4.904000000
C    -1.150000000     1.914000000    -3.820000000
H    -1.971000000     1.264000000    -3.527000000
O    -1.070000000    -0.961000000    -4.580000000
H     0.270000000    -0.439000000    -2.964000000
C     1.653000000    -2.997000000    -3.696000000
C     0.442000000    -3.560000000    -4.475000000
H     0.672000000    -4.609000000    -4.674000000
H     0.364000000    -3.072000000    -5.448000000
C    -0.905000000    -3.258000000    -3.675000000
C    -1.594000000    -2.019000000    -3.848000000
C    -2.767000000    -1.750000000    -3.167000000
H    -3.334000000    -0.841000000    -3.353000000
C    -3.207000000    -2.627000000    -2.242000000
O    -4.349000000    -2.210000000    -1.568000000
C    -4.104000000    -1.639000000    -0.205000000
H    -3.078000000    -1.242000000    -0.227000000
C    -5.074000000    -0.499000000     0.128000000
C    -5.429000000    -0.202000000     1.491000000
H    -5.112000000    -0.943000000     2.220000000
C    -5.428000000     0.414000000    -0.860000000
H    -5.156000000     0.244000000    -1.898000000
C    -6.174000000     1.595000000    -0.623000000
O    -6.493000000     2.593000000    -1.571000000
C    -6.485000000     1.877000000     0.730000000
H    -7.038000000     2.768000000     1.015000000
C    -5.992000000     1.025000000     1.762000000
O    -6.400000000     1.281000000     3.051000000
C    -5.670000000     0.934000000     4.185000000
C    -4.399000000     1.448000000     4.230000000
H    -3.963000000     2.005000000     3.404000000
C    -6.146000000     0.204000000     5.291000000
H    -7.148000000    -0.219000000     5.296000000
C    -5.346000000     0.000000000     6.416000000
H    -5.805000000    -0.427000000     7.304000000
C    -4.134000000     0.643000000     6.440000000
H    -3.469000000     0.694000000     7.299000000
C    -3.654000000     1.367000000     5.412000000
O    -2.410000000     1.981000000     5.529000000
C    -1.306000000     1.292000000     5.314000000
C    -0.218000000     1.836000000     6.012000000
H    -0.278000000     2.761000000     6.579000000
C     1.002000000     1.281000000     5.783000000
O     2.056000000     1.893000000     6.287000000
C     3.321000000     1.980000000     5.650000000
C     3.343000000     2.732000000     4.483000000
H     2.469000000     3.038000000     3.914000000
C     4.523000000     1.471000000     6.208000000
H     4.537000000     1.068000000     7.217000000
C     5.698000000     1.766000000     5.539000000
H     6.666000000     1.473000000     5.939000000
C     5.679000000     2.380000000     4.247000000
H     6.630000000     2.548000000     3.748000000
C     4.497000000     2.894000000     3.761000000
O     4.491000000     3.511000000     2.528000000
C     4.639000000     2.820000000     1.338000000
C     5.014000000     3.481000000     0.170000000
H     4.942000000     4.563000000     0.239000000
C     5.384000000     2.832000000    -0.984000000
O     5.952000000     3.439000000    -2.072000000
C     5.321000000     3.498000000    -3.371000000
C     3.907000000     3.778000000    -3.441000000
H     3.243000000     3.920000000    -2.592000000
C     6.109000000     3.501000000    -4.525000000
H     7.145000000     3.263000000    -4.299000000
C     5.566000000     3.819000000    -5.747000000
H     6.150000000     3.793000000    -6.664000000
C     4.179000000     4.057000000    -5.900000000
H     3.672000000     4.224000000    -6.847000000
C     3.392000000     4.040000000    -4.758000000
O     2.043000000     4.235000000    -4.958000000
C     1.013000000     3.448000000    -4.634000000
C    -0.238000000     4.047000000    -4.295000000
H    -0.434000000     5.116000000    -4.291000000
C    -1.280000000     3.295000000    -3.851000000
O    -2.367000000     3.946000000    -3.327000000
C    -3.709000000     3.659000000    -3.636000000
C    -4.235000000     3.631000000    -4.928000000
H    -3.668000000     3.876000000    -5.822000000
C    -5.585000000     3.370000000    -5.043000000
H    -5.992000000     3.569000000    -6.032000000
C    -6.324000000     2.923000000    -3.952000000
H    -7.407000000     2.830000000    -3.971000000
C    -5.725000000     2.875000000    -2.687000000
C    -4.431000000     3.315000000    -2.511000000
H    -4.028000000     3.408000000    -1.506000000
C    -2.197000000     2.092000000     0.692000000
H    -3.237000000     2.399000000     0.764000000
C    -1.880000000     1.109000000    -0.289000000
H    -2.718000000     0.635000000    -0.794000000
C    -0.577000000     0.648000000    -0.463000000
H    -0.398000000    -0.184000000    -1.175000000
C     0.412000000     1.145000000     0.393000000
H     1.378000000     0.650000000     0.449000000
C     0.122000000     2.151000000     1.333000000
H     0.886000000     2.772000000     1.793000000
C    -1.195000000     2.676000000     1.431000000
C    -1.458000000     3.800000000     2.433000000
O    -0.577000000     4.271000000     3.072000000
O    -2.466000000     4.414000000     2.442000000
O    -4.722000000     4.830000000     1.125000000
H    -3.939000000     4.561000000     1.607000000
H    -5.435000000     4.738000000     1.757000000
O     0.861000000     5.935000000     1.712000000
H     0.334000000     5.368000000     2.275000000
H     0.852000000     5.500000000     0.859000000
O     2.676000000     4.641000000     7.857000000
H     2.207000000     4.422000000     7.051000000
H     3.367000000     5.241000000     7.576000000
O     2.710000000     6.727000000     3.307000000
H     1.981000000     6.380000000     2.794000000
H     3.493000000     6.390000000     2.870000000
O     0.858000000     5.263000000     5.395000000
H     1.666000000     5.483000000     4.931000000
H     0.382000000     4.693000000     4.792000000
O     0.386000000     8.789000000     1.724000000
H    -0.357000000     9.053000000     1.182000000
H     0.488000000     7.853000000     1.553000000
O    -2.158000000     5.997000000     4.552000000
H    -2.328000000     5.482000000     3.763000000
H    -1.477000000     5.508000000     5.015000000
O    -1.699000000     8.423000000     3.609000000
H    -1.048000000     8.544000000     2.917000000
H    -1.678000000     7.484000000     3.795000000
O    -4.933000000     9.182000000     3.873000000
H    -4.774000000     8.788000000     3.015000000
H    -4.545000000    10.055000000     3.811000000
O    -4.540000000     8.390000000     1.317000000
H    -3.728000000     7.996000000     0.998000000
H    -5.234000000     7.887000000     0.889000000
O    -3.307000000     8.213000000     5.932000000
H    -2.939000000     7.558000000     5.339000000
H    -4.041000000     8.589000000     5.447000000
O    -7.269000000     4.620000000     2.904000000
H    -7.713000000     3.772000000     2.909000000
H    -6.477000000     4.478000000     3.421000000
O    -2.045000000     6.603000000     0.757000000
H    -2.146000000     5.926000000     1.425000000
H    -1.323000000     6.294000000     0.210000000
O    -6.246000000     6.593000000    -0.413000000
H    -7.060000000     6.363000000     0.034000000
H    -5.599000000     5.982000000    -0.061000000
O    -6.531000000     3.231000000     7.035000000
H    -7.364000000     3.287000000     6.566000000
H    -5.867000000     3.397000000     6.365000000
O     2.767000000     7.952000000     5.644000000
H     2.840000000     7.310000000     4.938000000
H     2.294000000     8.686000000     5.253000000
O    -5.218000000     4.873000000     4.557000000
H    -4.273000000     5.012000000     4.627000000
H    -5.599000000     5.737000000     4.714000000
O     0.125000000     5.626000000    -1.111000000
H    -0.342000000     5.305000000    -1.882000000
H     0.708000000     6.306000000    -1.450000000
O    -0.896000000     5.531000000     7.855000000
H    -0.570000000     5.684000000     8.742000000
H    -0.153000000     5.738000000     7.288000000
