215
-1444.01416
C     1.884000000     1.387000000     4.768000000
H     2.876000000     0.983000000     4.953000000
C     0.781000000     0.510000000     4.392000000
C    -0.474000000     1.067000000     4.147000000
H    -1.325000000     0.499000000     3.778000000
C     0.959000000    -0.928000000     3.956000000
O     2.290000000    -1.475000000     4.235000000
H     0.789000000    -0.822000000     2.875000000
O    -0.117000000    -1.809000000     4.460000000
C    -0.683000000    -2.633000000     3.529000000
C    -1.972000000    -2.409000000     3.254000000
H    -2.540000000    -1.628000000     3.755000000
C    -2.643000000    -3.237000000     2.316000000
O    -3.873000000    -2.789000000     1.953000000
C    -1.979000000    -4.252000000     1.606000000
C    -2.582000000    -5.022000000     0.466000000
H    -2.246000000    -6.061000000     0.469000000
C    -2.287000000    -4.300000000    -0.826000000
C    -1.156000000    -4.627000000    -1.562000000
H    -0.429000000    -5.244000000    -1.039000000
H    -3.644000000    -5.104000000     0.706000000
C    -0.646000000    -4.465000000     2.006000000
H    -0.065000000    -5.273000000     1.569000000
C    -0.006000000    -3.739000000     2.975000000
C     1.444000000    -4.174000000     3.340000000
H     1.623000000    -5.241000000     3.191000000
H     1.506000000    -4.026000000     4.420000000
C     2.482000000    -3.359000000     2.664000000
C     2.945000000    -3.744000000     1.402000000
H     2.656000000    -4.728000000     1.041000000
C     2.915000000    -2.137000000     3.182000000
C     3.896000000    -1.465000000     2.456000000
H     4.175000000    -0.472000000     2.797000000
C     4.405000000    -1.930000000     1.246000000
O     5.147000000    -1.008000000     0.552000000
C     4.268000000    -0.395000000    -0.438000000
C     4.445000000     1.184000000    -0.280000000
C     4.213000000     1.787000000    -1.468000000
H     3.613000000     1.335000000    -2.254000000
C     5.044000000     1.893000000     0.797000000
H     5.240000000     1.302000000     1.688000000
O     4.564000000    -0.917000000    -1.746000000
H     3.206000000    -0.591000000    -0.230000000
C     3.911000000    -3.135000000     0.739000000
C     4.381000000    -3.615000000    -0.580000000
H     4.405000000    -4.706000000    -0.632000000
H     5.397000000    -3.223000000    -0.660000000
C     3.546000000    -3.122000000    -1.754000000
C     2.442000000    -3.984000000    -2.150000000
H     2.354000000    -4.983000000    -1.731000000
C     3.746000000    -1.855000000    -2.301000000
C     2.814000000    -1.443000000    -3.308000000
H     2.735000000    -0.477000000    -3.799000000
C     1.771000000    -2.193000000    -3.660000000
O     0.810000000    -1.601000000    -4.489000000
C    -0.380000000    -1.109000000    -3.930000000
C    -0.847000000     0.258000000    -4.357000000
C     0.053000000     1.118000000    -4.956000000
H     1.110000000     0.866000000    -4.950000000
C    -2.156000000     0.689000000    -4.285000000
H    -2.894000000     0.085000000    -3.763000000
O    -1.410000000    -2.121000000    -4.175000000
H    -0.286000000    -0.979000000    -2.842000000
C     1.541000000    -3.528000000    -3.143000000
C     0.458000000    -4.454000000    -3.528000000
H     0.621000000    -5.533000000    -3.505000000
H     0.197000000    -4.316000000    -4.579000000
C    -0.851000000    -4.031000000    -2.824000000
C    -1.732000000    -3.019000000    -3.213000000
C    -2.827000000    -2.688000000    -2.411000000
H    -3.352000000    -1.793000000    -2.735000000
C    -3.119000000    -3.288000000    -1.196000000
O    -4.131000000    -2.813000000    -0.435000000
C    -3.904000000    -2.024000000     0.735000000
H    -2.931000000    -1.513000000     0.677000000
C    -4.913000000    -0.832000000     0.775000000
C    -5.036000000    -0.063000000     1.984000000
H    -4.593000000    -0.376000000     2.926000000
C    -5.666000000    -0.532000000    -0.348000000
H    -5.426000000    -0.992000000    -1.304000000
C    -6.515000000     0.608000000    -0.277000000
O    -7.248000000     1.048000000    -1.413000000
C    -6.725000000     1.302000000     0.833000000
H    -7.510000000     2.052000000     0.887000000
C    -6.006000000     0.943000000     2.018000000
O    -6.373000000     1.594000000     3.137000000
C    -5.357000000     1.888000000     4.045000000
C    -4.116000000     2.391000000     3.610000000
H    -4.022000000     2.660000000     2.561000000
C    -5.420000000     1.479000000     5.355000000
H    -6.311000000     0.956000000     5.694000000
C    -4.404000000     1.789000000     6.280000000
H    -4.529000000     1.469000000     7.312000000
C    -3.180000000     2.296000000     5.843000000
H    -2.325000000     2.419000000     6.504000000
C    -3.028000000     2.495000000     4.509000000
O    -1.833000000     3.094000000     4.070000000
C    -0.681000000     2.447000000     4.238000000
C     0.411000000     3.254000000     4.570000000
H     0.132000000     4.284000000     4.779000000
C     1.679000000     2.754000000     4.768000000
O     2.576000000     3.607000000     5.128000000
C     3.852000000     3.604000000     4.713000000
C     4.135000000     3.658000000     3.362000000
H     3.309000000     3.655000000     2.656000000
C     4.834000000     3.860000000     5.683000000
H     4.527000000     3.738000000     6.718000000
C     6.132000000     4.033000000     5.291000000
H     6.941000000     4.031000000     6.018000000
C     6.447000000     3.893000000     3.946000000
H     7.434000000     4.004000000     3.505000000
C     5.441000000     3.883000000     2.960000000
O     5.869000000     3.990000000     1.651000000
C     5.349000000     3.251000000     0.664000000
C     5.169000000     3.887000000    -0.586000000
H     5.436000000     4.933000000    -0.719000000
C     4.468000000     3.155000000    -1.580000000
O     4.243000000     3.847000000    -2.714000000
C     3.842000000     3.442000000    -4.000000000
C     2.460000000     3.427000000    -4.272000000
H     1.718000000     3.717000000    -3.532000000
C     4.714000000     2.998000000    -5.013000000
H     5.791000000     3.089000000    -4.897000000
C     4.220000000     2.785000000    -6.294000000
H     4.950000000     2.471000000    -7.036000000
C     2.888000000     2.859000000    -6.547000000
H     2.524000000     2.634000000    -7.546000000
C     2.005000000     3.259000000    -5.584000000
O     0.644000000     3.316000000    -5.770000000
C    -0.300000000     2.442000000    -5.349000000
C    -1.583000000     2.895000000    -5.192000000
H    -1.890000000     3.870000000    -5.561000000
C    -2.546000000     1.989000000    -4.677000000
O    -3.795000000     2.450000000    -4.428000000
C    -4.945000000     1.692000000    -4.196000000
C    -5.646000000     1.141000000    -5.263000000
H    -5.222000000     1.115000000    -6.264000000
C    -6.830000000     0.421000000    -5.020000000
H    -7.331000000     0.001000000    -5.889000000
C    -7.408000000     0.447000000    -3.770000000
H    -8.354000000    -0.057000000    -3.593000000
C    -6.778000000     1.071000000    -2.736000000
C    -5.545000000     1.663000000    -2.924000000
H    -4.939000000     1.992000000    -2.083000000
C    -1.497000000     0.646000000    -0.241000000
H    -2.475000000     0.556000000    -0.707000000
C    -0.745000000    -0.509000000     0.022000000
H    -1.135000000    -1.494000000    -0.222000000
C     0.569000000    -0.374000000     0.568000000
H     1.077000000    -1.352000000     0.852000000
C     1.126000000     0.898000000     0.852000000
H     2.137000000     1.102000000     1.197000000
C     0.305000000     2.022000000     0.684000000
H     0.599000000     3.010000000     1.031000000
C    -0.989000000     1.908000000     0.093000000
C    -1.901000000     3.134000000    -0.042000000
O    -1.618000000     4.199000000     0.466000000
O    -2.971000000     3.070000000    -0.618000000
O     1.790000000     6.550000000     4.795000000
H     1.113000000     6.179000000     4.229000000
H     2.086000000     5.813000000     5.329000000
O     1.383000000     6.983000000    -2.734000000
H     0.720000000     6.752000000    -2.084000000
H     1.761000000     7.801000000    -2.411000000
O    -0.520000000     8.909000000     2.160000000
H     0.392000000     8.976000000     1.877000000
H    -0.960000000     9.639000000     1.723000000
O     4.217000000     7.070000000     0.983000000
H     3.278000000     6.931000000     0.858000000
H     4.539000000     7.324000000     0.118000000
O    -0.369000000     5.488000000     2.762000000
H    -1.207000000     5.138000000     3.065000000
H    -0.136000000     4.938000000     2.014000000
O    -3.193000000     6.049000000     1.756000000
H    -2.840000000     6.757000000     1.217000000
H    -2.723000000     5.268000000     1.464000000
O    -7.726000000     4.728000000     2.283000000
H    -7.675000000     5.645000000     2.551000000
H    -6.909000000     4.570000000     1.810000000
O     1.341000000     6.939000000     1.342000000
H     0.636000000     6.693000000     1.940000000
H     0.981000000     6.780000000     0.469000000
O    -5.504000000     7.962000000    -0.264000000
H    -5.817000000     7.163000000     0.160000000
H    -4.554000000     7.934000000    -0.156000000
O    -1.434000000     8.014000000     4.605000000
H    -1.922000000     8.811000000     4.812000000
H    -1.034000000     8.193000000     3.754000000
O    -2.833000000     7.570000000    -0.579000000
H    -3.157000000     6.708000000    -0.842000000
H    -1.898000000     7.546000000    -0.782000000
O    -7.551000000     5.280000000    -1.410000000
H    -8.286000000     4.681000000    -1.278000000
H    -6.851000000     4.925000000    -0.863000000
O    -5.455000000     4.590000000     0.640000000
H    -4.903000000     5.308000000     0.952000000
H    -4.859000000     4.027000000     0.146000000
O    -5.742000000     4.911000000    -3.367000000
H    -6.303000000     4.923000000    -4.142000000
H    -6.325000000     5.147000000    -2.646000000
O    -1.560000000     5.827000000     6.184000000
H    -1.504000000     6.677000000     5.747000000
H    -2.151000000     5.314000000     5.633000000
O    -4.594000000     7.116000000     5.046000000
H    -4.339000000     6.478000000     5.713000000
H    -4.336000000     6.713000000     4.217000000
O    -1.465000000     5.795000000    -3.462000000
H    -2.104000000     5.334000000    -2.919000000
H    -1.986000000     6.189000000    -4.162000000
O    -3.587000000     5.289000000    -1.801000000
H    -3.413000000     4.432000000    -1.414000000
H    -4.226000000     5.114000000    -2.492000000
O    -0.325000000     6.319000000    -0.779000000
H    -0.620000000     5.612000000    -0.205000000
H    -0.839000000     6.209000000    -1.579000000
