215
-1427.11660
C     1.608000000     1.028000000     4.228000000
H     2.575000000     0.679000000     3.874000000
C     0.546000000     0.157000000     4.202000000
C    -0.705000000     0.568000000     4.590000000
H    -1.591000000    -0.049000000     4.461000000
C     0.704000000    -1.266000000     3.655000000
O     2.017000000    -1.807000000     3.890000000
H     0.685000000    -1.143000000     2.562000000
O    -0.404000000    -2.076000000     4.111000000
C    -1.043000000    -2.848000000     3.174000000
C    -2.268000000    -2.380000000     2.760000000
H    -2.727000000    -1.496000000     3.196000000
C    -3.027000000    -3.062000000     1.750000000
O    -4.140000000    -2.478000000     1.360000000
C    -2.385000000    -4.082000000     1.035000000
C    -3.124000000    -4.739000000    -0.123000000
H    -2.960000000    -5.818000000    -0.174000000
C    -2.717000000    -3.992000000    -1.412000000
C    -1.574000000    -4.323000000    -2.147000000
H    -1.030000000    -5.245000000    -1.958000000
H    -4.208000000    -4.643000000    -0.035000000
C    -1.166000000    -4.571000000     1.466000000
H    -0.686000000    -5.364000000     0.898000000
C    -0.435000000    -3.930000000     2.506000000
C     0.907000000    -4.447000000     2.865000000
H     0.969000000    -5.504000000     2.599000000
H     0.980000000    -4.265000000     3.939000000
C     2.037000000    -3.662000000     2.265000000
C     2.608000000    -4.080000000     1.066000000
H     2.146000000    -4.850000000     0.454000000
C     2.530000000    -2.459000000     2.760000000
C     3.561000000    -1.796000000     2.065000000
H     3.944000000    -0.825000000     2.369000000
C     4.247000000    -2.290000000     0.926000000
O     5.175000000    -1.575000000     0.241000000
C     4.589000000    -0.518000000    -0.689000000
C     5.142000000     0.861000000    -0.600000000
C     5.158000000     1.682000000    -1.728000000
H     4.684000000     1.246000000    -2.604000000
C     5.456000000     1.383000000     0.674000000
H     5.570000000     0.640000000     1.459000000
O     4.609000000    -1.083000000    -2.069000000
H     3.545000000    -0.360000000    -0.381000000
C     3.648000000    -3.442000000     0.446000000
C     4.044000000    -3.814000000    -0.982000000
H     3.931000000    -4.882000000    -1.180000000
H     5.114000000    -3.607000000    -1.056000000
C     3.220000000    -3.103000000    -2.106000000
C     2.154000000    -3.789000000    -2.678000000
H     1.890000000    -4.809000000    -2.410000000
C     3.577000000    -1.864000000    -2.553000000
C     2.733000000    -1.184000000    -3.464000000
H     2.926000000    -0.141000000    -3.702000000
C     1.601000000    -1.798000000    -3.895000000
O     0.791000000    -1.087000000    -4.690000000
C    -0.446000000    -0.624000000    -4.116000000
C    -0.748000000     0.802000000    -4.406000000
C     0.251000000     1.806000000    -4.317000000
H     1.193000000     1.488000000    -3.878000000
C    -2.010000000     1.151000000    -4.747000000
H    -2.813000000     0.420000000    -4.701000000
O    -1.512000000    -1.521000000    -4.491000000
H    -0.379000000    -0.708000000    -3.022000000
C     1.290000000    -3.108000000    -3.511000000
C     0.117000000    -3.899000000    -4.012000000
H     0.302000000    -4.957000000    -3.815000000
H    -0.025000000    -3.826000000    -5.092000000
C    -1.152000000    -3.524000000    -3.177000000
C    -1.918000000    -2.444000000    -3.543000000
C    -3.059000000    -2.148000000    -2.860000000
H    -3.566000000    -1.238000000    -3.172000000
C    -3.472000000    -2.880000000    -1.779000000
O    -4.484000000    -2.349000000    -0.956000000
C    -4.072000000    -1.593000000     0.275000000
H    -3.060000000    -1.167000000     0.225000000
C    -4.962000000    -0.420000000     0.519000000
C    -5.445000000    -0.164000000     1.832000000
H    -5.451000000    -1.023000000     2.499000000
C    -4.895000000     0.656000000    -0.346000000
H    -4.315000000     0.522000000    -1.256000000
C    -5.409000000     1.919000000     0.013000000
O    -5.437000000     2.938000000    -0.847000000
C    -5.979000000     2.039000000     1.217000000
H    -6.303000000     3.020000000     1.554000000
C    -5.932000000     1.060000000     2.178000000
O    -6.293000000     1.335000000     3.549000000
C    -5.465000000     1.100000000     4.616000000
C    -4.218000000     1.768000000     4.559000000
H    -3.945000000     2.437000000     3.747000000
C    -5.837000000     0.230000000     5.592000000
H    -6.745000000    -0.364000000     5.657000000
C    -4.884000000    -0.009000000     6.600000000
H    -5.201000000    -0.767000000     7.313000000
C    -3.640000000     0.631000000     6.632000000
H    -2.888000000     0.351000000     7.365000000
C    -3.319000000     1.564000000     5.651000000
O    -2.093000000     2.259000000     5.685000000
C    -0.872000000     1.793000000     5.254000000
C     0.188000000     2.666000000     5.292000000
H     0.146000000     3.670000000     5.706000000
C     1.404000000     2.345000000     4.777000000
O     2.461000000     3.261000000     4.847000000
C     3.781000000     2.882000000     4.620000000
C     4.399000000     3.079000000     3.295000000
H     3.823000000     3.402000000     2.432000000
C     4.575000000     2.454000000     5.690000000
H     4.125000000     2.324000000     6.671000000
C     5.952000000     2.144000000     5.496000000
H     6.502000000     1.858000000     6.388000000
C     6.494000000     2.460000000     4.286000000
H     7.565000000     2.354000000     4.136000000
C     5.807000000     2.901000000     3.186000000
O     6.404000000     3.138000000     1.971000000
C     5.933000000     2.653000000     0.765000000
C     6.104000000     3.469000000    -0.398000000
H     6.565000000     4.451000000    -0.336000000
C     5.678000000     2.971000000    -1.644000000
O     5.493000000     3.848000000    -2.741000000
C     4.524000000     3.791000000    -3.737000000
C     3.204000000     4.166000000    -3.575000000
H     2.942000000     4.509000000    -2.577000000
C     4.853000000     3.196000000    -4.952000000
H     5.897000000     2.986000000    -5.171000000
C     3.943000000     3.022000000    -5.973000000
H     4.208000000     2.642000000    -6.957000000
C     2.663000000     3.394000000    -5.780000000
H     1.954000000     3.268000000    -6.594000000
C     2.214000000     3.900000000    -4.566000000
O     0.920000000     4.190000000    -4.215000000
C    -0.013000000     3.162000000    -4.386000000
C    -1.314000000     3.547000000    -4.745000000
H    -1.647000000     4.576000000    -4.848000000
C    -2.299000000     2.551000000    -4.871000000
O    -3.555000000     2.959000000    -5.177000000
C    -4.614000000     2.636000000    -4.394000000
C    -5.691000000     1.821000000    -4.791000000
H    -5.885000000     1.602000000    -5.838000000
C    -6.718000000     1.510000000    -3.939000000
H    -7.475000000     0.886000000    -4.407000000
C    -6.674000000     1.998000000    -2.611000000
H    -7.506000000     1.785000000    -1.945000000
C    -5.553000000     2.695000000    -2.220000000
C    -4.543000000     3.096000000    -3.111000000
H    -3.616000000     3.533000000    -2.748000000
C    -1.634000000     1.923000000    -0.401000000
H    -2.430000000     2.236000000    -1.072000000
C    -1.254000000     0.554000000    -0.587000000
H    -1.740000000    -0.022000000    -1.370000000
C    -0.084000000     0.075000000     0.066000000
H     0.369000000    -0.886000000    -0.124000000
C     0.555000000     0.910000000     0.947000000
H     1.407000000     0.592000000     1.543000000
C     0.069000000     2.185000000     1.202000000
H     0.586000000     2.874000000     1.865000000
C    -1.013000000     2.760000000     0.521000000
C    -1.402000000     4.191000000     0.633000000
O    -1.097000000     4.830000000     1.623000000
O    -2.280000000     4.663000000    -0.058000000
O     2.361000000     7.060000000     4.642000000
H     1.532000000     6.811000000     5.049000000
H     2.300000000     8.009000000     4.535000000
O     4.469000000     6.281000000    -0.518000000
H     3.717000000     6.660000000    -0.063000000
H     4.806000000     6.994000000    -1.060000000
O    -3.403000000     5.325000000     5.273000000
H    -3.209000000     5.135000000     6.191000000
H    -2.580000000     5.665000000     4.920000000
O    -1.165000000     6.077000000     3.847000000
H    -0.982000000     5.399000000     3.197000000
H    -0.995000000     6.900000000     3.389000000
O    -3.691000000     5.351000000     2.567000000
H    -3.533000000     5.246000000     3.505000000
H    -2.822000000     5.296000000     2.170000000
O     1.731000000     7.024000000    -2.972000000
H     0.882000000     6.785000000    -2.599000000
H     1.886000000     6.369000000    -3.653000000
O     1.677000000     7.205000000    -0.051000000
H     0.769000000     6.943000000     0.100000000
H     1.837000000     6.996000000    -0.971000000
O    -7.591000000     6.438000000     1.767000000
H    -6.971000000     6.031000000     1.162000000
H    -7.234000000     6.254000000     2.636000000
O    -0.216000000     6.484000000     6.331000000
H    -0.559000000     6.222000000     5.477000000
H    -0.741000000     7.246000000     6.577000000
O    -6.343000000     5.652000000     4.176000000
H    -5.455000000     5.296000000     4.201000000
H    -6.544000000     5.859000000     5.088000000
O    -2.877000000     8.059000000     2.280000000
H    -3.117000000     7.210000000     2.653000000
H    -3.633000000     8.619000000     2.453000000
O    -5.440000000     5.355000000     0.594000000
H    -5.191000000     4.620000000     0.034000000
H    -4.792000000     5.349000000     1.299000000
O    -2.248000000     7.107000000    -4.536000000
H    -2.378000000     8.029000000    -4.761000000
H    -2.913000000     6.927000000    -3.871000000
O    -3.779000000     5.982000000    -1.783000000
H    -3.866000000     6.873000000    -1.445000000
H    -3.367000000     5.494000000    -1.071000000
O    -1.710000000    10.441000000    -1.019000000
H    -1.731000000    10.535000000    -0.066000000
H    -1.807000000     9.501000000    -1.169000000
O    -7.402000000     5.724000000    -1.874000000
H    -6.468000000     5.710000000    -2.083000000
H    -7.608000000     6.652000000    -1.757000000
O    -5.042000000     8.046000000    -0.349000000
H    -5.404000000     7.200000000    -0.087000000
H    -5.326000000     8.157000000    -1.257000000
O    -1.193000000     7.879000000     0.084000000
H    -1.948000000     7.894000000     0.672000000
H    -1.311000000     7.086000000    -0.438000000
O    -0.753000000     6.015000000    -1.949000000
H    -1.540000000     6.091000000    -2.489000000
H    -1.007000000     5.427000000    -1.237000000
