215
-1451.46222
C     1.817000000     2.000000000     4.924000000
H     2.830000000     1.716000000     4.651000000
C     0.783000000     1.070000000     4.873000000
C    -0.477000000     1.597000000     5.155000000
H    -1.292000000     0.882000000     5.078000000
C     0.995000000    -0.340000000     4.397000000
O     2.350000000    -0.779000000     4.559000000
H     0.764000000    -0.268000000     3.324000000
O     0.137000000    -1.270000000     5.174000000
C    -0.529000000    -2.185000000     4.366000000
C    -1.852000000    -1.945000000     4.013000000
H    -2.300000000    -1.054000000     4.443000000
C    -2.429000000    -2.679000000     2.978000000
O    -3.572000000    -2.124000000     2.454000000
C    -1.811000000    -3.836000000     2.539000000
C    -2.460000000    -4.799000000     1.591000000
H    -2.228000000    -5.861000000     1.698000000
C    -2.323000000    -4.452000000     0.105000000
C    -1.269000000    -4.915000000    -0.627000000
H    -0.580000000    -5.677000000    -0.271000000
H    -3.508000000    -4.881000000     1.886000000
C    -0.526000000    -4.132000000     3.040000000
H    -0.048000000    -5.038000000     2.675000000
C     0.128000000    -3.343000000     3.942000000
C     1.650000000    -3.597000000     4.153000000
H     1.855000000    -4.669000000     4.179000000
H     1.742000000    -3.352000000     5.213000000
C     2.512000000    -2.797000000     3.171000000
C     2.943000000    -3.382000000     1.994000000
H     2.731000000    -4.425000000     1.774000000
C     2.880000000    -1.503000000     3.467000000
C     3.624000000    -0.760000000     2.544000000
H     3.881000000     0.282000000     2.720000000
C     4.010000000    -1.369000000     1.309000000
O     4.575000000    -0.461000000     0.454000000
C     3.942000000    -0.264000000    -0.777000000
C     4.019000000     1.175000000    -1.159000000
C     4.110000000     1.633000000    -2.491000000
H     4.081000000     0.894000000    -3.287000000
C     3.921000000     2.145000000    -0.204000000
H     3.881000000     1.797000000     0.825000000
O     4.438000000    -1.109000000    -1.837000000
H     2.867000000    -0.494000000    -0.726000000
C     3.778000000    -2.696000000     1.083000000
C     4.394000000    -3.390000000    -0.097000000
H     4.513000000    -4.443000000     0.165000000
H     5.407000000    -2.982000000    -0.084000000
C     3.509000000    -3.307000000    -1.356000000
C     2.507000000    -4.240000000    -1.541000000
H     2.337000000    -5.045000000    -0.831000000
C     3.640000000    -2.195000000    -2.236000000
C     2.656000000    -2.023000000    -3.185000000
H     2.789000000    -1.218000000    -3.903000000
C     1.670000000    -2.984000000    -3.362000000
O     0.703000000    -2.578000000    -4.200000000
C    -0.430000000    -1.867000000    -3.738000000
C    -0.770000000    -0.683000000    -4.660000000
C     0.223000000    -0.291000000    -5.556000000
H     1.090000000    -0.888000000    -5.827000000
C    -2.003000000     0.002000000    -4.405000000
H    -2.729000000    -0.398000000    -3.702000000
O    -1.482000000    -2.805000000    -3.668000000
H    -0.201000000    -1.548000000    -2.710000000
C     1.587000000    -4.091000000    -2.559000000
C     0.353000000    -4.958000000    -2.673000000
H     0.659000000    -5.916000000    -2.248000000
H     0.128000000    -5.244000000    -3.703000000
C    -0.860000000    -4.375000000    -1.903000000
C    -1.678000000    -3.385000000    -2.431000000
C    -2.851000000    -2.992000000    -1.773000000
H    -3.460000000    -2.224000000    -2.243000000
C    -3.139000000    -3.435000000    -0.484000000
O    -4.089000000    -2.815000000     0.266000000
C    -3.694000000    -1.687000000     1.086000000
H    -2.675000000    -1.382000000     0.808000000
C    -4.531000000    -0.455000000     0.876000000
C    -4.577000000     0.516000000     1.885000000
H    -4.037000000     0.325000000     2.809000000
C    -5.163000000    -0.117000000    -0.337000000
H    -5.126000000    -0.768000000    -1.207000000
C    -5.929000000     1.034000000    -0.460000000
O    -6.607000000     1.388000000    -1.616000000
C    -6.061000000     1.880000000     0.647000000
H    -6.681000000     2.766000000     0.526000000
C    -5.427000000     1.610000000     1.838000000
O    -5.672000000     2.423000000     2.938000000
C    -4.962000000     2.276000000     4.078000000
C    -3.734000000     2.857000000     4.277000000
H    -3.194000000     3.380000000     3.492000000
C    -5.547000000     1.457000000     5.013000000
H    -6.425000000     0.871000000     4.753000000
C    -4.982000000     1.304000000     6.267000000
H    -5.428000000     0.594000000     6.959000000
C    -3.688000000     1.891000000     6.538000000
H    -3.225000000     1.915000000     7.522000000
C    -3.127000000     2.733000000     5.528000000
O    -1.983000000     3.425000000     5.780000000
C    -0.743000000     2.889000000     5.576000000
C     0.321000000     3.739000000     5.664000000
H     0.077000000     4.762000000     5.939000000
C     1.663000000     3.364000000     5.265000000
O     2.715000000     4.278000000     5.220000000
C     3.639000000     4.191000000     4.259000000
C     3.225000000     4.371000000     2.874000000
H     2.185000000     4.347000000     2.559000000
C     4.928000000     3.941000000     4.669000000
H     5.188000000     3.804000000     5.715000000
C     5.854000000     4.019000000     3.673000000
H     6.919000000     3.925000000     3.872000000
C     5.502000000     4.185000000     2.377000000
H     6.339000000     4.312000000     1.696000000
C     4.231000000     4.278000000     1.925000000
O     3.994000000     4.540000000     0.581000000
C     3.871000000     3.589000000    -0.455000000
C     3.988000000     3.919000000    -1.803000000
H     4.227000000     4.946000000    -2.065000000
C     4.124000000     2.955000000    -2.822000000
O     4.354000000     3.302000000    -4.114000000
C     3.934000000     2.626000000    -5.237000000
C     2.582000000     2.311000000    -5.469000000
H     1.810000000     2.490000000    -4.725000000
C     4.879000000     2.279000000    -6.138000000
H     5.913000000     2.541000000    -5.929000000
C     4.583000000     1.705000000    -7.336000000
H     5.302000000     1.540000000    -8.134000000
C     3.255000000     1.467000000    -7.685000000
H     3.000000000     0.977000000    -8.621000000
C     2.254000000     1.785000000    -6.743000000
O     0.936000000     1.490000000    -7.074000000
C     0.027000000     0.920000000    -6.273000000
C    -1.142000000     1.667000000    -6.001000000
H    -1.259000000     2.537000000    -6.641000000
C    -2.147000000     1.241000000    -5.082000000
O    -3.214000000     2.143000000    -4.769000000
C    -4.488000000     1.783000000    -4.462000000
C    -5.395000000     1.555000000    -5.503000000
H    -5.073000000     1.754000000    -6.522000000
C    -6.681000000     1.136000000    -5.215000000
H    -7.402000000     1.005000000    -6.017000000
C    -7.121000000     1.040000000    -3.839000000
H    -8.085000000     0.651000000    -3.521000000
C    -6.138000000     1.361000000    -2.879000000
C    -4.828000000     1.664000000    -3.154000000
H    -4.163000000     1.967000000    -2.349000000
C    -2.011000000     2.116000000     0.006000000
H    -2.893000000     2.427000000    -0.549000000
C    -1.184000000     1.075000000    -0.478000000
H    -1.468000000     0.590000000    -1.408000000
C    -0.054000000     0.681000000     0.275000000
H     0.473000000    -0.172000000    -0.019000000
C     0.336000000     1.374000000     1.383000000
H     1.251000000     1.068000000     1.884000000
C    -0.383000000     2.507000000     1.761000000
H    -0.073000000     3.091000000     2.624000000
C    -1.564000000     2.917000000     1.058000000
C    -2.361000000     4.204000000     1.358000000
O    -1.855000000     5.045000000     2.051000000
O    -3.474000000     4.325000000     0.876000000
O     3.045000000     7.949000000     2.917000000
H     3.124000000     7.732000000     3.846000000
H     2.589000000     7.200000000     2.534000000
O     0.518000000     7.273000000     5.244000000
H    -0.378000000     6.939000000     5.204000000
H     0.536000000     7.989000000     4.609000000
O     2.895000000     7.056000000    -1.802000000
H     2.133000000     6.524000000    -1.576000000
H     2.795000000     7.233000000    -2.738000000
O    -2.126000000     6.879000000     3.968000000
H    -2.610000000     7.415000000     3.339000000
H    -1.929000000     6.072000000     3.492000000
O    -5.523000000     6.144000000     3.797000000
H    -5.624000000     6.076000000     2.847000000
H    -4.605000000     5.926000000     3.957000000
O    -1.675000000     7.510000000    -1.074000000
H    -2.190000000     6.743000000    -1.321000000
H    -1.336000000     7.848000000    -1.903000000
O    -6.065000000     8.773000000     1.366000000
H    -6.706000000     8.510000000     2.027000000
H    -5.305000000     8.216000000     1.533000000
O     0.522000000     6.439000000     1.693000000
H     0.224000000     7.345000000     1.772000000
H    -0.284000000     5.925000000     1.646000000
O    -0.690000000     8.801000000     0.890000000
H    -0.518000000     9.734000000     0.765000000
H    -1.222000000     8.552000000     0.134000000
O    -3.231000000     7.222000000     1.618000000
H    -2.785000000     6.376000000     1.669000000
H    -2.838000000     7.654000000     0.860000000
O    -8.014000000     6.294000000    -0.223000000
H    -8.562000000     5.510000000    -0.250000000
H    -7.174000000     5.988000000     0.121000000
O    -5.780000000     5.518000000     1.197000000
H    -5.874000000     4.609000000     1.483000000
H    -4.851000000     5.608000000     0.985000000
O    -6.034000000     4.651000000    -2.770000000
H    -6.266000000     3.807000000    -2.383000000
H    -6.829000000     4.935000000    -3.221000000
O    -3.734000000     7.097000000     6.324000000
H    -3.274000000     6.741000000     5.564000000
H    -3.548000000     8.036000000     6.299000000
O    -5.062000000     7.574000000    -2.835000000
H    -5.983000000     7.703000000    -2.607000000
H    -4.770000000     6.867000000    -2.259000000
O     0.434000000     5.399000000    -3.620000000
H     0.451000000     5.153000000    -2.695000000
H    -0.363000000     5.919000000    -3.715000000
O    -3.638000000     5.556000000    -1.421000000
H    -3.772000000     5.096000000    -0.592000000
H    -4.243000000     5.132000000    -2.030000000
O     0.346000000     5.724000000    -0.789000000
H     0.617000000     6.110000000     0.043000000
H    -0.465000000     6.181000000    -1.013000000
O     0.021000000     9.676000000     3.612000000
H    -0.396000000     9.530000000     2.763000000
H     0.367000000    10.567000000     3.559000000
