215
-1444.38997
C     2.124000000     0.778000000     4.493000000
H     3.101000000     0.423000000     4.175000000
C     0.962000000     0.111000000     4.207000000
C    -0.264000000     0.776000000     4.308000000
H    -1.186000000     0.238000000     4.104000000
C     0.997000000    -1.239000000     3.544000000
O     2.315000000    -1.804000000     3.498000000
H     0.621000000    -1.047000000     2.528000000
O     0.112000000    -2.132000000     4.163000000
C    -0.622000000    -2.889000000     3.245000000
C    -1.954000000    -2.538000000     3.085000000
H    -2.336000000    -1.704000000     3.669000000
C    -2.723000000    -3.130000000     2.079000000
O    -4.009000000    -2.638000000     1.873000000
C    -2.172000000    -4.134000000     1.315000000
C    -3.044000000    -4.857000000     0.208000000
H    -2.913000000    -5.939000000     0.138000000
C    -2.882000000    -4.082000000    -1.079000000
C    -1.801000000    -4.354000000    -1.918000000
H    -1.158000000    -5.227000000    -1.852000000
H    -4.089000000    -4.746000000     0.505000000
C    -0.910000000    -4.582000000     1.532000000
H    -0.461000000    -5.414000000     0.996000000
C    -0.116000000    -3.943000000     2.482000000
C     1.357000000    -4.398000000     2.681000000
H     1.446000000    -5.459000000     2.436000000
H     1.673000000    -4.342000000     3.725000000
C     2.406000000    -3.620000000     1.921000000
C     2.839000000    -4.050000000     0.701000000
H     2.350000000    -4.907000000     0.244000000
C     2.819000000    -2.370000000     2.348000000
C     3.743000000    -1.717000000     1.640000000
H     3.984000000    -0.714000000     1.984000000
C     4.351000000    -2.235000000     0.530000000
O     5.241000000    -1.559000000    -0.208000000
C     4.630000000    -0.575000000    -1.095000000
C     5.057000000     0.914000000    -0.900000000
C     4.886000000     1.833000000    -1.988000000
H     4.461000000     1.420000000    -2.899000000
C     5.519000000     1.419000000     0.342000000
H     5.489000000     0.803000000     1.238000000
O     4.547000000    -1.099000000    -2.462000000
H     3.563000000    -0.575000000    -0.827000000
C     3.857000000    -3.406000000    -0.003000000
C     4.154000000    -3.857000000    -1.423000000
H     4.130000000    -4.934000000    -1.601000000
H     5.195000000    -3.609000000    -1.641000000
C     3.162000000    -3.101000000    -2.297000000
C     1.911000000    -3.658000000    -2.613000000
H     1.636000000    -4.621000000    -2.190000000
C     3.482000000    -1.853000000    -2.779000000
C     2.559000000    -1.191000000    -3.593000000
H     2.675000000    -0.148000000    -3.876000000
C     1.356000000    -1.815000000    -4.024000000
O     0.356000000    -1.074000000    -4.683000000
C    -0.770000000    -0.643000000    -3.947000000
C    -1.095000000     0.852000000    -4.104000000
C    -0.077000000     1.714000000    -4.504000000
H     0.891000000     1.373000000    -4.864000000
C    -2.379000000     1.383000000    -3.800000000
H    -3.246000000     0.728000000    -3.762000000
O    -1.873000000    -1.553000000    -4.256000000
H    -0.353000000    -0.829000000    -2.946000000
C     1.022000000    -3.051000000    -3.479000000
C    -0.205000000    -3.848000000    -3.823000000
H     0.026000000    -4.915000000    -3.820000000
H    -0.338000000    -3.669000000    -4.892000000
C    -1.482000000    -3.583000000    -2.989000000
C    -2.284000000    -2.480000000    -3.297000000
C    -3.292000000    -2.139000000    -2.492000000
H    -3.767000000    -1.180000000    -2.684000000
C    -3.634000000    -2.951000000    -1.397000000
O    -4.551000000    -2.429000000    -0.456000000
C    -4.079000000    -1.733000000     0.715000000
H    -3.113000000    -1.271000000     0.462000000
C    -5.000000000    -0.582000000     1.014000000
C    -5.120000000    -0.032000000     2.327000000
H    -4.413000000    -0.317000000     3.102000000
C    -5.759000000     0.080000000     0.023000000
H    -5.614000000    -0.252000000    -1.002000000
C    -6.674000000     1.121000000     0.234000000
O    -7.370000000     1.669000000    -0.829000000
C    -6.792000000     1.597000000     1.552000000
H    -7.486000000     2.404000000     1.774000000
C    -6.074000000     1.036000000     2.575000000
O    -6.237000000     1.483000000     3.885000000
C    -5.136000000     1.689000000     4.739000000
C    -3.978000000     2.234000000     4.251000000
H    -3.921000000     2.597000000     3.228000000
C    -5.272000000     1.188000000     6.024000000
H    -6.174000000     0.754000000     6.447000000
C    -4.124000000     1.101000000     6.791000000
H    -4.103000000     0.613000000     7.761000000
C    -2.878000000     1.560000000     6.322000000
H    -2.034000000     1.491000000     7.004000000
C    -2.841000000     2.163000000     5.063000000
O    -1.587000000     2.661000000     4.627000000
C    -0.368000000     2.081000000     4.702000000
C     0.844000000     2.726000000     5.072000000
H     0.752000000     3.783000000     5.308000000
C     2.023000000     2.054000000     5.031000000
O     3.182000000     2.841000000     5.220000000
C     4.501000000     2.555000000     4.783000000
C     4.778000000     2.968000000     3.467000000
H     4.054000000     3.606000000     2.966000000
C     5.389000000     1.710000000     5.444000000
H     5.067000000     1.218000000     6.358000000
C     6.709000000     1.602000000     4.902000000
H     7.452000000     1.062000000     5.483000000
C     6.994000000     2.152000000     3.665000000
H     8.007000000     2.123000000     3.271000000
C     6.001000000     2.769000000     2.931000000
O     6.222000000     3.312000000     1.660000000
C     5.829000000     2.797000000     0.468000000
C     5.589000000     3.634000000    -0.615000000
H     5.870000000     4.683000000    -0.575000000
C     5.206000000     3.125000000    -1.845000000
O     5.206000000     4.005000000    -2.949000000
C     4.324000000     3.913000000    -4.063000000
C     2.946000000     4.067000000    -3.833000000
H     2.549000000     4.459000000    -2.900000000
C     4.780000000     3.496000000    -5.305000000
H     5.840000000     3.402000000    -5.527000000
C     3.810000000     3.080000000    -6.228000000
H     4.132000000     2.478000000    -7.074000000
C     2.472000000     3.284000000    -5.953000000
H     1.720000000     2.910000000    -6.643000000
C     2.026000000     3.890000000    -4.819000000
O     0.683000000     4.061000000    -4.599000000
C    -0.302000000     3.101000000    -4.372000000
C    -1.527000000     3.583000000    -3.980000000
H    -1.665000000     4.649000000    -3.820000000
C    -2.566000000     2.749000000    -3.855000000
O    -3.796000000     3.312000000    -3.500000000
C    -5.001000000     2.634000000    -3.411000000
C    -5.772000000     2.307000000    -4.519000000
H    -5.372000000     2.604000000    -5.486000000
C    -6.973000000     1.611000000    -4.396000000
H    -7.572000000     1.543000000    -5.300000000
C    -7.495000000     1.338000000    -3.163000000
H    -8.443000000     0.843000000    -2.972000000
C    -6.785000000     1.656000000    -2.053000000
C    -5.523000000     2.226000000    -2.208000000
H    -4.982000000     2.479000000    -1.299000000
C    -1.646000000     0.997000000     0.070000000
H    -2.703000000     1.124000000    -0.147000000
C    -0.892000000    -0.093000000    -0.272000000
H    -1.307000000    -0.983000000    -0.739000000
C     0.444000000    -0.168000000    -0.052000000
H     1.070000000    -0.874000000    -0.604000000
C     1.178000000     0.922000000     0.429000000
H     2.265000000     0.900000000     0.468000000
C     0.453000000     2.021000000     0.836000000
H     0.949000000     2.885000000     1.271000000
C    -0.952000000     2.084000000     0.665000000
C    -1.679000000     3.410000000     0.984000000
O    -0.985000000     4.405000000     1.087000000
O    -2.875000000     3.488000000     0.883000000
O     3.487000000     6.412000000     3.958000000
H     3.487000000     7.342000000     3.729000000
H     2.661000000     6.079000000     3.606000000
O    -2.900000000     9.724000000     4.025000000
H    -2.879000000     9.203000000     3.222000000
H    -2.779000000    10.626000000     3.728000000
O     1.090000000     5.683000000     2.915000000
H     0.620000000     6.167000000     3.594000000
H     0.404000000     5.235000000     2.422000000
O    -2.686000000     5.533000000     3.043000000
H    -2.119000000     5.307000000     3.780000000
H    -2.252000000     5.148000000     2.281000000
O     2.096000000     8.373000000     2.388000000
H     1.951000000     7.440000000     2.230000000
H     2.629000000     8.661000000     1.646000000
O     3.222000000     5.252000000     1.136000000
H     2.633000000     5.269000000     1.890000000
H     2.649000000     5.390000000     0.381000000
O    -5.294000000     5.466000000     4.312000000
H    -5.127000000     4.932000000     5.089000000
H    -4.439000000     5.830000000     4.082000000
O    -0.664000000     6.614000000     4.790000000
H    -1.023000000     7.500000000     4.834000000
H    -0.582000000     6.342000000     5.704000000
O    -5.562000000     6.462000000    -2.438000000
H    -5.294000000     6.501000000    -3.356000000
H    -4.885000000     5.937000000    -2.013000000
O    -4.081000000     6.446000000    -4.806000000
H    -3.204000000     6.657000000    -4.487000000
H    -3.940000000     6.121000000    -5.696000000
O    -3.512000000     7.825000000     1.764000000
H    -3.282000000     7.062000000     2.294000000
H    -4.468000000     7.861000000     1.799000000
O    -5.531000000     4.653000000     1.437000000
H    -4.717000000     4.168000000     1.297000000
H    -5.486000000     4.937000000     2.350000000
O    -2.411000000     7.211000000    -2.790000000
H    -2.738000000     6.545000000    -2.185000000
H    -1.573000000     7.484000000    -2.416000000
O    -3.449000000     5.201000000    -1.037000000
H    -3.873000000     5.273000000    -0.182000000
H    -2.758000000     4.552000000    -0.909000000
O     2.274000000     7.449000000    -2.963000000
H     1.779000000     7.983000000    -2.341000000
H     2.291000000     6.577000000    -2.569000000
O    -8.077000000     4.473000000    -0.075000000
H    -7.407000000     4.297000000     0.585000000
H    -7.946000000     3.794000000    -0.737000000
O     0.883000000     8.561000000    -1.095000000
H     0.387000000     8.105000000    -0.416000000
H     0.287000000     9.238000000    -1.414000000
O    -0.774000000     6.992000000     0.414000000
H    -1.095000000     6.142000000     0.715000000
H    -1.351000000     7.629000000     0.835000000
O     1.248000000     5.577000000    -0.962000000
H     0.766000000     4.763000000    -1.106000000
H     0.598000000     6.178000000    -0.597000000
