215
-1501.15565
C     2.979000000     1.348000000     4.746000000
H     3.795000000     0.843000000     4.236000000
C     1.767000000     0.698000000     4.896000000
C     0.764000000     1.394000000     5.594000000
H    -0.240000000     0.991000000     5.700000000
C     1.619000000    -0.673000000     4.215000000
O     2.873000000    -1.427000000     4.213000000
H     1.310000000    -0.511000000     3.172000000
O     0.688000000    -1.571000000     4.884000000
C    -0.134000000    -2.300000000     4.084000000
C    -1.410000000    -1.772000000     3.807000000
H    -1.672000000    -0.763000000     4.116000000
C    -2.247000000    -2.432000000     2.924000000
O    -3.434000000    -1.772000000     2.583000000
C    -1.961000000    -3.704000000     2.409000000
C    -3.041000000    -4.381000000     1.571000000
H    -2.817000000    -5.450000000     1.553000000
C    -2.985000000    -3.922000000     0.117000000
C    -2.068000000    -4.618000000    -0.764000000
H    -1.373000000    -5.399000000    -0.464000000
H    -4.009000000    -4.214000000     2.049000000
C    -0.669000000    -4.205000000     2.696000000
H    -0.388000000    -5.179000000     2.304000000
C     0.274000000    -3.463000000     3.467000000
C     1.631000000    -4.021000000     3.804000000
H     1.759000000    -5.106000000     3.781000000
H     1.871000000    -3.822000000     4.851000000
C     2.592000000    -3.392000000     2.885000000
C     2.888000000    -4.067000000     1.656000000
H     2.443000000    -5.005000000     1.333000000
C     3.156000000    -2.173000000     3.084000000
C     3.905000000    -1.537000000     2.087000000
H     4.380000000    -0.574000000     2.258000000
C     4.135000000    -2.178000000     0.910000000
O     4.742000000    -1.484000000    -0.131000000
C     3.961000000    -0.896000000    -1.182000000
C     4.233000000     0.572000000    -1.498000000
C     4.253000000     0.968000000    -2.854000000
H     4.342000000     0.171000000    -3.588000000
C     4.255000000     1.530000000    -0.510000000
H     4.131000000     1.145000000     0.499000000
O     4.009000000    -1.783000000    -2.303000000
H     2.924000000    -0.970000000    -0.824000000
C     3.637000000    -3.484000000     0.629000000
C     3.711000000    -4.206000000    -0.712000000
H     3.683000000    -5.298000000    -0.692000000
H     4.745000000    -4.083000000    -1.041000000
C     2.650000000    -3.732000000    -1.703000000
C     1.436000000    -4.397000000    -1.902000000
H     1.151000000    -5.193000000    -1.218000000
C     2.918000000    -2.571000000    -2.503000000
C     1.960000000    -2.152000000    -3.387000000
H     2.140000000    -1.205000000    -3.890000000
C     0.789000000    -2.827000000    -3.603000000
O    -0.136000000    -2.286000000    -4.448000000
C    -1.277000000    -1.701000000    -3.752000000
C    -1.737000000    -0.406000000    -4.385000000
C    -0.752000000     0.449000000    -4.958000000
H     0.292000000     0.150000000    -5.010000000
C    -3.092000000     0.027000000    -4.468000000
H    -3.906000000    -0.500000000    -3.977000000
O    -2.461000000    -2.550000000    -3.706000000
H    -0.832000000    -1.384000000    -2.797000000
C     0.510000000    -3.980000000    -2.847000000
C    -0.798000000    -4.778000000    -2.977000000
H    -0.721000000    -5.804000000    -2.613000000
H    -1.131000000    -4.824000000    -4.016000000
C    -1.937000000    -4.213000000    -2.088000000
C    -2.669000000    -3.090000000    -2.505000000
C    -3.650000000    -2.455000000    -1.755000000
H    -4.167000000    -1.577000000    -2.133000000
C    -3.684000000    -2.821000000    -0.406000000
O    -4.338000000    -2.011000000     0.414000000
C    -3.608000000    -1.143000000     1.270000000
H    -2.573000000    -1.087000000     0.901000000
C    -4.227000000     0.216000000     1.301000000
C    -3.775000000     1.111000000     2.265000000
H    -3.145000000     0.811000000     3.099000000
C    -5.075000000     0.696000000     0.290000000
H    -5.338000000     0.116000000    -0.591000000
C    -5.471000000     2.034000000     0.266000000
O    -6.262000000     2.535000000    -0.709000000
C    -5.004000000     2.899000000     1.293000000
H    -5.260000000     3.956000000     1.281000000
C    -4.144000000     2.426000000     2.255000000
O    -3.719000000     3.254000000     3.312000000
C    -3.254000000     2.902000000     4.551000000
C    -1.959000000     3.224000000     4.775000000
H    -1.290000000     3.676000000     4.047000000
C    -4.106000000     2.500000000     5.526000000
H    -5.153000000     2.356000000     5.273000000
C    -3.699000000     2.318000000     6.858000000
H    -4.406000000     2.196000000     7.675000000
C    -2.378000000     2.600000000     7.110000000
H    -2.080000000     2.497000000     8.150000000
C    -1.477000000     3.040000000     6.127000000
O    -0.199000000     3.402000000     6.485000000
C     0.913000000     2.696000000     5.968000000
C     2.120000000     3.361000000     5.773000000
H     2.226000000     4.411000000     6.034000000
C     3.132000000     2.708000000     5.087000000
O     4.382000000     3.290000000     4.967000000
C     5.061000000     3.381000000     3.744000000
C     4.403000000     3.681000000     2.521000000
H     3.351000000     3.952000000     2.498000000
C     6.443000000     3.211000000     3.740000000
H     6.962000000     2.958000000     4.661000000
C     7.156000000     3.340000000     2.484000000
H     8.241000000     3.292000000     2.450000000
C     6.497000000     3.530000000     1.296000000
H     7.134000000     3.590000000     0.417000000
C     5.138000000     3.701000000     1.292000000
O     4.453000000     3.926000000     0.170000000
C     4.412000000     2.898000000    -0.777000000
C     4.380000000     3.260000000    -2.125000000
H     4.343000000     4.301000000    -2.435000000
C     4.311000000     2.298000000    -3.123000000
O     4.399000000     2.784000000    -4.412000000
C     3.525000000     2.389000000    -5.435000000
C     2.187000000     2.578000000    -5.131000000
H     1.808000000     3.007000000    -4.207000000
C     3.965000000     1.952000000    -6.687000000
H     5.031000000     1.920000000    -6.898000000
C     3.079000000     1.499000000    -7.671000000
H     3.370000000     1.043000000    -8.614000000
C     1.712000000     1.733000000    -7.427000000
H     0.933000000     1.617000000    -8.177000000
C     1.307000000     2.267000000    -6.207000000
O    -0.104000000     2.506000000    -6.086000000
C    -1.088000000     1.720000000    -5.523000000
C    -2.444000000     2.119000000    -5.527000000
H    -2.677000000     3.125000000    -5.868000000
C    -3.433000000     1.250000000    -5.069000000
O    -4.740000000     1.717000000    -5.204000000
C    -5.679000000     1.626000000    -4.180000000
C    -7.025000000     1.289000000    -4.577000000
H    -7.297000000     1.029000000    -5.596000000
C    -8.067000000     1.419000000    -3.693000000
H    -9.090000000     1.191000000    -3.982000000
C    -7.806000000     1.740000000    -2.346000000
H    -8.633000000     1.900000000    -1.659000000
C    -6.474000000     1.985000000    -1.952000000
C    -5.419000000     1.987000000    -2.838000000
H    -4.428000000     2.237000000    -2.468000000
C    -1.671000000     1.955000000    -0.304000000
H    -2.501000000     2.351000000    -0.884000000
C    -1.077000000     0.790000000    -0.718000000
H    -1.457000000     0.247000000    -1.579000000
C     0.118000000     0.399000000    -0.104000000
H     0.580000000    -0.502000000    -0.492000000
C     0.722000000     1.198000000     0.864000000
H     1.643000000     0.897000000     1.358000000
C     0.093000000     2.348000000     1.317000000
H     0.695000000     3.005000000     1.940000000
C    -1.101000000     2.785000000     0.660000000
C    -1.577000000     4.170000000     0.771000000
O    -1.090000000     4.836000000     1.668000000
O    -2.298000000     4.693000000    -0.051000000
O     2.149000000     4.987000000    -0.514000000
H     2.881000000     4.415000000    -0.284000000
H     1.555000000     4.428000000    -1.015000000
O    -0.805000000     6.919000000     3.311000000
H    -0.326000000     7.682000000     2.989000000
H    -0.855000000     6.331000000     2.557000000
O    -3.344000000     8.557000000     0.348000000
H    -2.889000000     8.179000000    -0.405000000
H    -3.729000000     7.805000000     0.798000000
O    -1.999000000     4.125000000    -2.660000000
H    -2.233000000     4.205000000    -1.735000000
H    -2.757000000     4.472000000    -3.130000000
O    -4.226000000     5.316000000    -3.563000000
H    -4.252000000     6.100000000    -4.112000000
H    -4.266000000     5.650000000    -2.667000000
O    -5.720000000     7.864000000    -1.544000000
H    -5.365000000     8.254000000    -0.745000000
H    -5.355000000     6.979000000    -1.560000000
O    -5.258000000     7.525000000     3.630000000
H    -4.715000000     7.009000000     3.035000000
H    -4.637000000     8.077000000     4.104000000
O     1.402000000     5.586000000     2.099000000
H     1.705000000     5.519000000     1.194000000
H     0.514000000     5.228000000     2.082000000
O     2.350000000     7.728000000     3.621000000
H     1.792000000     8.310000000     3.105000000
H     2.306000000     6.888000000     3.165000000
O     1.908000000     7.527000000    -1.123000000
H     2.066000000     7.532000000    -2.067000000
H     1.986000000     6.606000000    -0.873000000
O    -3.760000000     5.829000000     2.230000000
H    -2.913000000     5.559000000     1.877000000
H    -4.073000000     5.064000000     2.714000000
O    -1.199000000     7.161000000    -0.854000000
H    -1.593000000     6.395000000    -0.435000000
H    -0.324000000     7.221000000    -0.469000000
O    -2.822000000     9.075000000     4.514000000
H    -2.669000000     9.242000000     5.444000000
H    -2.190000000     8.392000000     4.287000000
O     0.555000000     8.854000000     1.653000000
H     0.180000000     9.726000000     1.526000000
H     0.949000000     8.638000000     0.808000000
O    -0.580000000     5.777000000    -4.337000000
H    -0.855000000     5.115000000    -3.702000000
H    -0.854000000     5.424000000    -5.184000000
O    -4.806000000     5.449000000    -0.798000000
H    -5.527000000     4.864000000    -0.568000000
H    -4.083000000     5.171000000    -0.236000000
O    -1.369000000     8.282000000    -3.436000000
H    -1.182000000     7.522000000    -3.987000000
H    -1.452000000     7.923000000    -2.553000000
O     0.825000000     2.984000000    -1.652000000
H     0.573000000     2.196000000    -1.169000000
H     0.087000000     3.152000000    -2.237000000
O    -1.479000000     6.428000000     5.907000000
H    -2.435000000     6.405000000     5.943000000
H    -1.276000000     6.488000000     4.973000000
