215
-1469.93493
C     1.816000000     2.054000000     4.805000000
H     2.828000000     1.657000000     4.818000000
C     0.658000000     1.231000000     4.562000000
C    -0.621000000     1.838000000     4.512000000
H    -1.495000000     1.207000000     4.373000000
C     0.794000000    -0.260000000     4.204000000
O     2.036000000    -0.793000000     4.498000000
H     0.541000000    -0.297000000     3.134000000
O    -0.201000000    -1.214000000     4.837000000
C    -0.775000000    -2.132000000     4.024000000
C    -2.041000000    -1.810000000     3.572000000
H    -2.557000000    -0.980000000     4.048000000
C    -2.749000000    -2.590000000     2.761000000
O    -3.956000000    -2.089000000     2.309000000
C    -2.187000000    -3.777000000     2.281000000
C    -2.789000000    -4.699000000     1.256000000
H    -2.398000000    -5.710000000     1.389000000
C    -2.508000000    -4.148000000    -0.074000000
C    -1.435000000    -4.673000000    -0.783000000
H    -0.934000000    -5.568000000    -0.422000000
H    -3.876000000    -4.661000000     1.360000000
C    -0.948000000    -4.172000000     2.841000000
H    -0.340000000    -4.996000000     2.475000000
C    -0.221000000    -3.322000000     3.713000000
C     1.196000000    -3.637000000     4.128000000
H     1.354000000    -4.717000000     4.083000000
H     1.381000000    -3.463000000     5.190000000
C     2.202000000    -2.944000000     3.277000000
C     2.697000000    -3.581000000     2.157000000
H     2.446000000    -4.624000000     1.980000000
C     2.590000000    -1.608000000     3.536000000
C     3.439000000    -0.963000000     2.660000000
H     3.689000000     0.072000000     2.878000000
C     4.015000000    -1.640000000     1.563000000
O     4.862000000    -0.993000000     0.647000000
C     4.284000000    -0.596000000    -0.624000000
C     4.560000000     0.903000000    -0.848000000
C     4.796000000     1.291000000    -2.193000000
H     4.829000000     0.585000000    -3.019000000
C     4.417000000     1.794000000     0.194000000
H     4.101000000     1.427000000     1.168000000
O     4.675000000    -1.521000000    -1.679000000
H     3.189000000    -0.689000000    -0.569000000
C     3.574000000    -2.940000000     1.260000000
C     4.184000000    -3.717000000     0.101000000
H     4.173000000    -4.784000000     0.333000000
H     5.170000000    -3.292000000    -0.102000000
C     3.356000000    -3.474000000    -1.146000000
C     2.137000000    -4.212000000    -1.392000000
H     1.785000000    -5.041000000    -0.784000000
C     3.750000000    -2.465000000    -2.018000000
C     2.918000000    -2.118000000    -3.034000000
H     3.308000000    -1.293000000    -3.624000000
C     1.748000000    -2.766000000    -3.372000000
O     0.873000000    -2.182000000    -4.299000000
C    -0.358000000    -1.582000000    -3.788000000
C    -0.596000000    -0.313000000    -4.616000000
C     0.479000000     0.466000000    -5.153000000
H     1.505000000     0.115000000    -5.088000000
C    -1.910000000     0.153000000    -4.519000000
H    -2.703000000    -0.418000000    -4.043000000
O    -1.463000000    -2.549000000    -3.745000000
H    -0.130000000    -1.366000000    -2.734000000
C     1.353000000    -3.864000000    -2.501000000
C     0.103000000    -4.652000000    -2.784000000
H     0.280000000    -5.697000000    -2.523000000
H    -0.188000000    -4.720000000    -3.834000000
C    -1.048000000    -4.078000000    -1.977000000
C    -1.804000000    -3.078000000    -2.548000000
C    -2.992000000    -2.686000000    -1.910000000
H    -3.532000000    -1.956000000    -2.507000000
C    -3.355000000    -3.255000000    -0.736000000
O    -4.407000000    -2.605000000    -0.027000000
C    -3.960000000    -1.622000000     0.934000000
H    -3.006000000    -1.204000000     0.581000000
C    -4.770000000    -0.375000000     0.806000000
C    -5.087000000     0.446000000     1.922000000
H    -4.534000000     0.301000000     2.846000000
C    -5.332000000     0.002000000    -0.384000000
H    -5.092000000    -0.585000000    -1.267000000
C    -6.228000000     1.003000000    -0.529000000
O    -6.876000000     1.303000000    -1.711000000
C    -6.583000000     1.723000000     0.589000000
H    -7.307000000     2.511000000     0.399000000
C    -5.967000000     1.533000000     1.813000000
O    -6.191000000     2.332000000     2.887000000
C    -5.236000000     2.475000000     3.947000000
C    -3.961000000     3.047000000     3.755000000
H    -3.640000000     3.340000000     2.759000000
C    -5.665000000     2.187000000     5.278000000
H    -6.683000000     1.849000000     5.450000000
C    -4.789000000     2.350000000     6.372000000
H    -5.105000000     2.140000000     7.390000000
C    -3.510000000     2.881000000     6.146000000
H    -2.862000000     3.062000000     7.000000000
C    -3.125000000     3.250000000     4.853000000
O    -1.975000000     3.830000000     4.710000000
C    -0.729000000     3.190000000     4.817000000
C     0.390000000     3.991000000     4.947000000
H     0.167000000     5.055000000     4.961000000
C     1.719000000     3.425000000     4.961000000
O     2.850000000     4.247000000     5.092000000
C     3.906000000     3.957000000     4.252000000
C     3.710000000     4.241000000     2.908000000
H     2.810000000     4.682000000     2.489000000
C     5.133000000     3.508000000     4.727000000
H     5.299000000     3.262000000     5.773000000
C     6.154000000     3.267000000     3.883000000
H     7.105000000     2.893000000     4.254000000
C     5.996000000     3.469000000     2.507000000
H     6.794000000     3.225000000     1.810000000
C     4.746000000     3.961000000     2.005000000
O     4.467000000     4.208000000     0.727000000
C     4.575000000     3.146000000    -0.157000000
C     4.876000000     3.595000000    -1.461000000
H     5.131000000     4.641000000    -1.610000000
C     4.874000000     2.662000000    -2.483000000
O     5.211000000     3.052000000    -3.763000000
C     4.531000000     2.628000000    -4.844000000
C     3.145000000     2.657000000    -4.953000000
H     2.593000000     3.035000000    -4.097000000
C     5.252000000     2.231000000    -5.963000000
H     6.329000000     2.086000000    -5.923000000
C     4.616000000     1.810000000    -7.138000000
H     5.295000000     1.482000000    -7.921000000
C     3.155000000     1.857000000    -7.194000000
H     2.610000000     1.501000000    -8.065000000
C     2.455000000     2.305000000    -6.106000000
O     1.124000000     2.438000000    -6.234000000
C     0.099000000     1.684000000    -5.711000000
C    -1.213000000     2.210000000    -5.604000000
H    -1.347000000     3.270000000    -5.805000000
C    -2.181000000     1.431000000    -5.030000000
O    -3.466000000     1.931000000    -5.104000000
C    -4.531000000     1.247000000    -4.630000000
C    -5.164000000     0.386000000    -5.473000000
H    -4.677000000     0.025000000    -6.375000000
C    -6.363000000    -0.164000000    -5.046000000
H    -6.871000000    -0.894000000    -5.672000000
C    -6.959000000     0.140000000    -3.781000000
H    -7.862000000    -0.318000000    -3.386000000
C    -6.313000000     1.047000000    -2.971000000
C    -5.082000000     1.568000000    -3.348000000
H    -4.451000000     2.176000000    -2.705000000
C    -2.156000000     2.129000000    -0.016000000
H    -3.087000000     2.141000000    -0.576000000
C    -1.327000000     1.013000000    -0.132000000
H    -1.621000000     0.121000000    -0.679000000
C    -0.076000000     1.070000000     0.441000000
H     0.721000000     0.279000000     0.285000000
C     0.307000000     2.229000000     1.194000000
H     1.299000000     2.327000000     1.627000000
C    -0.475000000     3.327000000     1.304000000
H    -0.133000000     4.174000000     1.892000000
C    -1.755000000     3.312000000     0.665000000
C    -2.719000000     4.479000000     0.757000000
O    -2.389000000     5.638000000     1.020000000
O    -3.887000000     4.193000000     0.579000000
O    -3.016000000    10.604000000     3.427000000
H    -3.440000000     9.809000000     3.103000000
H    -2.079000000    10.426000000     3.346000000
O     1.697000000     7.451000000     3.975000000
H     1.098000000     7.085000000     3.323000000
H     1.294000000     8.281000000     4.230000000
O     1.395000000     6.517000000    -0.363000000
H     2.291000000     6.636000000    -0.050000000
H     1.481000000     5.936000000    -1.119000000
O    -2.526000000     7.366000000     3.095000000
H    -1.621000000     7.612000000     3.289000000
H    -2.450000000     6.564000000     2.578000000
O    -5.457000000     7.836000000     2.482000000
H    -5.855000000     7.000000000     2.238000000
H    -4.628000000     7.596000000     2.895000000
O    -2.424000000     4.251000000    -3.185000000
H    -3.269000000     4.632000000    -2.943000000
H    -1.777000000     4.856000000    -2.822000000
O    -5.608000000     8.058000000    -1.011000000
H    -6.066000000     7.594000000    -0.310000000
H    -5.497000000     8.948000000    -0.677000000
O     0.087000000     6.665000000     1.846000000
H     0.426000000     6.433000000     0.981000000
H    -0.787000000     6.275000000     1.873000000
O    -0.600000000     9.281000000    -0.276000000
H     0.016000000     8.640000000     0.079000000
H    -1.440000000     8.822000000    -0.294000000
O    -2.661000000     7.427000000    -0.712000000
H    -2.538000000     6.716000000    -0.083000000
H    -3.544000000     7.752000000    -0.536000000
O    -7.620000000     6.395000000    -0.243000000
H    -8.519000000     6.726000000    -0.238000000
H    -7.532000000     5.928000000     0.588000000
O    -6.006000000     5.062000000     1.765000000
H    -6.245000000     4.245000000     2.203000000
H    -5.197000000     4.855000000     1.297000000
O    -6.927000000     4.503000000    -3.948000000
H    -6.376000000     4.608000000    -3.172000000
H    -6.422000000     4.901000000    -4.657000000
O    -2.256000000     7.264000000     6.040000000
H    -2.703000000     8.083000000     6.255000000
H    -2.320000000     7.200000000     5.087000000
O    -4.497000000     7.680000000    -3.369000000
H    -3.948000000     6.898000000    -3.305000000
H    -4.887000000     7.771000000    -2.500000000
O     1.436000000     5.400000000    -3.186000000
H     0.979000000     4.733000000    -2.673000000
H     0.779000000     6.080000000    -3.334000000
O    -4.996000000     4.854000000    -1.728000000
H    -5.651000000     5.448000000    -1.361000000
H    -4.570000000     4.465000000    -0.964000000
O    -1.100000000     6.792000000    -2.819000000
H    -0.742000000     7.556000000    -3.271000000
H    -1.336000000     7.116000000    -1.950000000
O     0.179000000     3.472000000    -1.773000000
H    -0.028000000     2.990000000    -0.973000000
H    -0.486000000     3.189000000    -2.402000000
