215
-1464.12648
C     2.054000000     2.087000000     4.231000000
H     3.007000000     1.669000000     3.916000000
C     0.980000000     1.171000000     4.362000000
C    -0.266000000     1.703000000     4.710000000
H    -1.158000000     1.083000000     4.660000000
C     1.179000000    -0.264000000     3.966000000
O     2.593000000    -0.654000000     4.023000000
H     0.791000000    -0.457000000     2.955000000
O     0.538000000    -1.144000000     4.864000000
C    -0.123000000    -2.147000000     4.235000000
C    -1.463000000    -2.053000000     3.983000000
H    -1.995000000    -1.179000000     4.350000000
C    -2.144000000    -2.978000000     3.171000000
O    -3.380000000    -2.617000000     2.727000000
C    -1.513000000    -4.060000000     2.581000000
C    -2.249000000    -4.921000000     1.559000000
H    -1.860000000    -5.939000000     1.624000000
C    -2.083000000    -4.292000000     0.185000000
C    -1.145000000    -4.757000000    -0.681000000
H    -0.382000000    -5.454000000    -0.343000000
H    -3.310000000    -5.025000000     1.795000000
C    -0.110000000    -4.171000000     2.827000000
H     0.505000000    -4.989000000     2.460000000
C     0.537000000    -3.243000000     3.652000000
C     2.057000000    -3.493000000     3.882000000
H     2.319000000    -4.549000000     3.784000000
H     2.355000000    -3.122000000     4.865000000
C     2.857000000    -2.711000000     2.783000000
C     3.420000000    -3.275000000     1.629000000
H     3.189000000    -4.333000000     1.531000000
C     3.117000000    -1.353000000     2.940000000
C     3.897000000    -0.626000000     2.053000000
H     4.072000000     0.428000000     2.250000000
C     4.343000000    -1.204000000     0.886000000
O     4.905000000    -0.429000000    -0.098000000
C     4.187000000    -0.034000000    -1.252000000
C     4.505000000     1.481000000    -1.605000000
C     4.661000000     1.831000000    -2.995000000
H     4.599000000     0.984000000    -3.673000000
C     4.673000000     2.492000000    -0.607000000
H     4.661000000     2.209000000     0.442000000
O     4.358000000    -0.927000000    -2.431000000
H     3.104000000    -0.085000000    -1.064000000
C     4.048000000    -2.569000000     0.599000000
C     4.442000000    -3.326000000    -0.715000000
H     4.491000000    -4.369000000    -0.393000000
H     5.454000000    -3.064000000    -1.032000000
C     3.452000000    -3.080000000    -1.815000000
C     2.454000000    -4.041000000    -1.907000000
H     2.428000000    -4.969000000    -1.342000000
C     3.447000000    -1.971000000    -2.636000000
C     2.518000000    -1.855000000    -3.607000000
H     2.593000000    -1.008000000    -4.284000000
C     1.399000000    -2.726000000    -3.642000000
O     0.310000000    -2.421000000    -4.404000000
C    -0.895000000    -1.868000000    -3.723000000
C    -1.380000000    -0.652000000    -4.451000000
C    -0.478000000     0.300000000    -4.969000000
H     0.591000000     0.103000000    -4.993000000
C    -2.770000000    -0.362000000    -4.585000000
H    -3.577000000    -1.075000000    -4.435000000
O    -1.873000000    -2.903000000    -3.650000000
H    -0.550000000    -1.634000000    -2.705000000
C     1.343000000    -3.805000000    -2.787000000
C     0.162000000    -4.764000000    -2.783000000
H     0.460000000    -5.750000000    -2.421000000
H    -0.233000000    -4.886000000    -3.794000000
C    -1.054000000    -4.299000000    -1.974000000
C    -1.976000000    -3.382000000    -2.441000000
C    -3.086000000    -3.050000000    -1.622000000
H    -3.787000000    -2.363000000    -2.090000000
C    -3.058000000    -3.460000000    -0.290000000
O    -4.035000000    -2.928000000     0.558000000
C    -3.489000000    -1.936000000     1.459000000
H    -2.517000000    -1.560000000     1.106000000
C    -4.542000000    -0.808000000     1.500000000
C    -4.844000000    -0.135000000     2.623000000
H    -4.464000000    -0.418000000     3.601000000
C    -4.943000000    -0.179000000     0.329000000
H    -4.676000000    -0.642000000    -0.618000000
C    -5.637000000     1.049000000     0.302000000
O    -6.134000000     1.628000000    -0.805000000
C    -5.968000000     1.655000000     1.520000000
H    -6.597000000     2.542000000     1.523000000
C    -5.545000000     1.087000000     2.675000000
O    -5.815000000     1.754000000     3.825000000
C    -4.930000000     1.888000000     4.832000000
C    -3.743000000     2.569000000     4.581000000
H    -3.385000000     2.808000000     3.583000000
C    -5.373000000     1.517000000     6.121000000
H    -6.268000000     0.919000000     6.275000000
C    -4.528000000     1.902000000     7.183000000
H    -4.713000000     1.684000000     8.232000000
C    -3.295000000     2.572000000     6.905000000
H    -2.640000000     2.789000000     7.745000000
C    -2.907000000     2.977000000     5.594000000
O    -1.645000000     3.627000000     5.432000000
C    -0.415000000     3.061000000     5.033000000
C     0.692000000     3.932000000     4.930000000
H     0.661000000     5.008000000     5.085000000
C     1.942000000     3.418000000     4.519000000
O     3.071000000     4.188000000     4.568000000
C     4.065000000     4.165000000     3.564000000
C     3.878000000     4.516000000     2.216000000
H     2.887000000     4.680000000     1.799000000
C     5.428000000     3.946000000     3.916000000
H     5.721000000     3.679000000     4.928000000
C     6.477000000     4.007000000     3.006000000
H     7.491000000     3.813000000     3.345000000
C     6.225000000     4.353000000     1.693000000
H     7.089000000     4.536000000     1.059000000
C     4.926000000     4.535000000     1.304000000
O     4.623000000     4.794000000     0.018000000
C     4.775000000     3.861000000    -0.995000000
C     4.705000000     4.169000000    -2.302000000
H     4.657000000     5.188000000    -2.678000000
C     4.636000000     3.190000000    -3.310000000
O     4.545000000     3.587000000    -4.651000000
C     3.623000000     2.880000000    -5.370000000
C     2.268000000     3.019000000    -5.080000000
H     1.944000000     3.650000000    -4.257000000
C     4.058000000     2.141000000    -6.484000000
H     5.134000000     2.121000000    -6.640000000
C     3.135000000     1.410000000    -7.172000000
H     3.484000000     0.695000000    -7.913000000
C     1.823000000     1.567000000    -6.910000000
H     1.067000000     1.106000000    -7.540000000
C     1.369000000     2.376000000    -5.892000000
O    -0.023000000     2.557000000    -5.729000000
C    -0.899000000     1.614000000    -5.341000000
C    -2.256000000     1.915000000    -5.283000000
H    -2.490000000     2.917000000    -5.632000000
C    -3.175000000     0.921000000    -5.022000000
O    -4.455000000     1.254000000    -5.195000000
C    -5.407000000     0.870000000    -4.267000000
C    -6.432000000    -0.018000000    -4.598000000
H    -6.554000000    -0.225000000    -5.658000000
C    -7.309000000    -0.450000000    -3.674000000
H    -8.134000000    -1.126000000    -3.888000000
C    -7.149000000     0.019000000    -2.347000000
H    -7.924000000    -0.260000000    -1.637000000
C    -6.264000000     1.016000000    -2.040000000
C    -5.384000000     1.449000000    -3.001000000
H    -4.665000000     2.246000000    -2.827000000
C    -2.136000000     1.591000000    -0.288000000
H    -3.132000000     1.806000000    -0.665000000
C    -1.527000000     0.337000000    -0.601000000
H    -1.999000000    -0.344000000    -1.304000000
C    -0.303000000     0.008000000    -0.072000000
H     0.223000000    -0.836000000    -0.383000000
C     0.356000000     0.943000000     0.786000000
H     1.389000000     0.756000000     1.071000000
C    -0.313000000     2.108000000     1.137000000
H     0.180000000     2.819000000     1.796000000
C    -1.515000000     2.537000000     0.508000000
C    -2.105000000     3.922000000     0.813000000
O    -1.597000000     4.630000000     1.669000000
O    -3.032000000     4.379000000     0.135000000
O     1.710000000     5.199000000    -0.485000000
H     2.643000000     5.136000000    -0.281000000
H     1.526000000     4.420000000    -1.010000000
O    -2.378000000     6.180000000     3.944000000
H    -2.262000000     6.589000000     3.086000000
H    -2.123000000     5.267000000     3.811000000
O    -5.269000000     9.088000000     0.327000000
H    -4.500000000     8.528000000     0.217000000
H    -5.797000000     8.644000000     0.990000000
O    -2.282000000     4.315000000    -2.376000000
H    -2.253000000     4.232000000    -1.422000000
H    -3.131000000     4.720000000    -2.555000000
O    -3.405000000     6.570000000    -4.078000000
H    -4.310000000     6.446000000    -3.793000000
H    -3.479000000     6.954000000    -4.952000000
O    -2.346000000     8.329000000    -2.322000000
H    -2.605000000     7.620000000    -2.910000000
H    -1.600000000     7.978000000    -1.837000000
O    -6.172000000     6.265000000    -3.058000000
H    -5.744000000     5.889000000    -2.289000000
H    -6.853000000     6.834000000    -2.699000000
O     0.835000000     5.908000000     1.926000000
H     1.278000000     5.616000000     1.129000000
H     0.038000000     5.379000000     1.964000000
O     2.285000000     7.124000000     4.028000000
H     3.052000000     6.969000000     3.477000000
H     1.539000000     6.957000000     3.453000000
O    -5.458000000     6.738000000     2.158000000
H    -4.640000000     6.905000000     1.689000000
H    -5.228000000     6.835000000     3.082000000
O    -3.178000000     7.041000000     0.967000000
H    -2.947000000     6.116000000     0.884000000
H    -2.340000000     7.489000000     1.082000000
O    -5.270000000     5.367000000     4.619000000
H    -5.372000000     4.490000000     4.250000000
H    -4.323000000     5.483000000     4.702000000
O    -0.984000000     8.257000000     1.629000000
H    -0.478000000     7.445000000     1.612000000
H    -0.593000000     8.767000000     2.340000000
O    -7.583000000     4.127000000    -0.277000000
H    -8.278000000     3.695000000     0.220000000
H    -7.341000000     3.493000000    -0.952000000
O    -0.582000000     5.671000000    -4.334000000
H    -0.627000000     4.943000000    -3.713000000
H    -1.489000000     5.963000000    -4.426000000
O    -5.084000000     5.232000000    -0.971000000
H    -5.824000000     4.844000000    -0.504000000
H    -4.312000000     4.839000000    -0.565000000
O    -0.130000000     6.876000000    -1.304000000
H    -0.638000000     6.135000000    -1.636000000
H     0.638000000     6.477000000    -0.895000000
O     1.032000000     2.753000000    -1.610000000
H     1.281000000     2.307000000    -0.801000000
H     0.381000000     2.176000000    -2.011000000
O    -0.708000000     7.623000000     5.680000000
H    -1.122000000     7.717000000     6.538000000
H    -1.397000000     7.268000000     5.119000000
