215
-1468.22793
C     1.936000000     1.376000000     5.022000000
H     2.901000000     0.964000000     4.740000000
C     0.798000000     0.617000000     4.875000000
C    -0.425000000     1.171000000     5.201000000
H    -1.340000000     0.604000000     5.050000000
C     0.986000000    -0.780000000     4.310000000
O     2.371000000    -1.259000000     4.320000000
H     0.687000000    -0.698000000     3.255000000
O     0.133000000    -1.772000000     4.953000000
C    -0.469000000    -2.608000000     4.055000000
C    -1.769000000    -2.223000000     3.679000000
H    -2.265000000    -1.320000000     4.024000000
C    -2.390000000    -2.828000000     2.624000000
O    -3.507000000    -2.172000000     2.160000000
C    -1.900000000    -4.006000000     2.038000000
C    -2.587000000    -4.668000000     0.882000000
H    -2.308000000    -5.723000000     0.836000000
C    -2.402000000    -4.105000000    -0.486000000
C    -1.425000000    -4.532000000    -1.360000000
H    -0.807000000    -5.398000000    -1.136000000
H    -3.634000000    -4.715000000     1.186000000
C    -0.643000000    -4.466000000     2.510000000
H    -0.247000000    -5.363000000     2.040000000
C     0.107000000    -3.682000000     3.462000000
C     1.582000000    -4.047000000     3.722000000
H     1.711000000    -5.126000000     3.617000000
H     1.774000000    -3.969000000     4.794000000
C     2.418000000    -3.182000000     2.860000000
C     2.748000000    -3.701000000     1.615000000
H     2.469000000    -4.696000000     1.277000000
C     2.858000000    -1.913000000     3.194000000
C     3.763000000    -1.215000000     2.415000000
H     4.040000000    -0.187000000     2.633000000
C     4.099000000    -1.753000000     1.124000000
O     4.830000000    -0.956000000     0.254000000
C     4.112000000    -0.438000000    -0.877000000
C     4.468000000     1.011000000    -0.997000000
C     4.662000000     1.591000000    -2.262000000
H     4.914000000     0.888000000    -3.052000000
C     4.148000000     1.887000000     0.078000000
H     3.850000000     1.492000000     1.046000000
O     4.263000000    -1.234000000    -2.088000000
H     3.046000000    -0.411000000    -0.606000000
C     3.542000000    -2.990000000     0.711000000
C     3.873000000    -3.754000000    -0.600000000
H     3.734000000    -4.828000000    -0.463000000
H     4.917000000    -3.554000000    -0.849000000
C     2.945000000    -3.195000000    -1.662000000
C     1.882000000    -4.031000000    -2.071000000
H     1.781000000    -5.006000000    -1.601000000
C     3.219000000    -2.052000000    -2.390000000
C     2.449000000    -1.634000000    -3.436000000
H     2.716000000    -0.722000000    -3.965000000
C     1.380000000    -2.457000000    -3.860000000
O     0.538000000    -1.797000000    -4.735000000
C    -0.610000000    -1.237000000    -4.013000000
C    -0.934000000     0.142000000    -4.584000000
C     0.126000000     0.925000000    -5.047000000
H     1.174000000     0.672000000    -4.906000000
C    -2.224000000     0.606000000    -4.697000000
H    -3.001000000    -0.023000000    -4.271000000
O    -1.741000000    -2.109000000    -4.107000000
H    -0.247000000    -1.049000000    -2.992000000
C     1.098000000    -3.661000000    -3.183000000
C    -0.087000000    -4.475000000    -3.546000000
H     0.125000000    -5.518000000    -3.303000000
H    -0.255000000    -4.375000000    -4.620000000
C    -1.222000000    -3.976000000    -2.646000000
C    -2.062000000    -2.938000000    -3.025000000
C    -3.076000000    -2.455000000    -2.146000000
H    -3.657000000    -1.561000000    -2.352000000
C    -3.284000000    -3.128000000    -0.922000000
O    -4.154000000    -2.427000000    -0.100000000
C    -3.528000000    -1.503000000     0.849000000
H    -2.526000000    -1.193000000     0.516000000
C    -4.469000000    -0.238000000     0.966000000
C    -4.526000000     0.420000000     2.180000000
H    -4.086000000     0.026000000     3.093000000
C    -4.962000000     0.306000000    -0.205000000
H    -4.710000000    -0.123000000    -1.172000000
C    -5.581000000     1.550000000    -0.236000000
O    -6.092000000     2.172000000    -1.371000000
C    -5.775000000     2.163000000     1.033000000
H    -6.242000000     3.142000000     0.964000000
C    -5.255000000     1.628000000     2.263000000
O    -5.518000000     2.266000000     3.418000000
C    -4.861000000     2.166000000     4.630000000
C    -3.557000000     2.599000000     4.748000000
H    -3.046000000     2.984000000     3.869000000
C    -5.523000000     1.818000000     5.792000000
H    -6.512000000     1.415000000     5.591000000
C    -4.923000000     1.791000000     7.064000000
H    -5.548000000     1.393000000     7.859000000
C    -3.582000000     2.042000000     7.166000000
H    -3.183000000     2.053000000     8.178000000
C    -2.942000000     2.486000000     6.036000000
O    -1.628000000     3.012000000     6.184000000
C    -0.514000000     2.453000000     5.698000000
C     0.642000000     3.220000000     5.882000000
H     0.571000000     4.204000000     6.339000000
C     1.827000000     2.691000000     5.532000000
O     2.940000000     3.508000000     5.606000000
C     3.942000000     3.525000000     4.617000000
C     3.564000000     3.861000000     3.324000000
H     2.571000000     4.227000000     3.075000000
C     5.220000000     3.019000000     4.938000000
H     5.456000000     2.733000000     5.959000000
C     6.178000000     2.900000000     3.915000000
H     7.186000000     2.587000000     4.175000000
C     5.756000000     3.244000000     2.601000000
H     6.524000000     3.084000000     1.848000000
C     4.464000000     3.755000000     2.306000000
O     4.190000000     4.183000000     0.993000000
C     4.175000000     3.298000000    -0.080000000
C     4.541000000     3.799000000    -1.307000000
H     4.518000000     4.879000000    -1.427000000
C     4.679000000     2.970000000    -2.447000000
O     4.848000000     3.493000000    -3.716000000
C     4.189000000     3.040000000    -4.873000000
C     2.821000000     3.009000000    -4.944000000
H     2.229000000     3.299000000    -4.080000000
C     4.924000000     2.983000000    -6.136000000
H     6.008000000     3.063000000    -6.162000000
C     4.300000000     2.587000000    -7.259000000
H     4.949000000     2.403000000    -8.112000000
C     2.922000000     2.443000000    -7.270000000
H     2.397000000     1.988000000    -8.106000000
C     2.191000000     2.650000000    -6.178000000
O     0.808000000     2.799000000    -6.348000000
C    -0.196000000     2.088000000    -5.767000000
C    -1.545000000     2.571000000    -5.925000000
H    -1.728000000     3.478000000    -6.496000000
C    -2.542000000     1.737000000    -5.428000000
O    -3.861000000     2.073000000    -5.630000000
C    -4.872000000     1.538000000    -4.806000000
C    -5.591000000     0.418000000    -5.245000000
H    -5.528000000    -0.020000000    -6.238000000
C    -6.568000000    -0.091000000    -4.327000000
H    -7.164000000    -0.955000000    -4.612000000
C    -6.662000000     0.403000000    -3.024000000
H    -7.412000000     0.006000000    -2.345000000
C    -5.955000000     1.581000000    -2.635000000
C    -5.025000000     2.139000000    -3.582000000
H    -4.318000000     2.913000000    -3.293000000
C    -1.577000000     1.652000000    -0.219000000
H    -2.546000000     1.911000000    -0.639000000
C    -1.160000000     0.383000000    -0.641000000
H    -1.709000000    -0.111000000    -1.438000000
C    -0.066000000    -0.204000000     0.023000000
H     0.232000000    -1.250000000    -0.196000000
C     0.670000000     0.552000000     0.892000000
H     1.571000000     0.170000000     1.366000000
C     0.285000000     1.813000000     1.253000000
H     0.774000000     2.367000000     2.050000000
C    -0.840000000     2.406000000     0.770000000
C    -1.299000000     3.679000000     1.313000000
O    -0.587000000     4.396000000     2.072000000
O    -2.220000000     4.253000000     0.730000000
O     2.682000000     6.980000000     4.928000000
H     3.056000000     7.020000000     4.048000000
H     3.432000000     6.807000000     5.499000000
O     1.681000000     4.876000000    -1.819000000
H     1.468000000     3.944000000    -1.875000000
H     1.756000000     5.159000000    -2.730000000
O    -0.042000000     5.746000000     4.242000000
H     0.900000000     5.585000000     4.180000000
H    -0.398000000     5.402000000     3.423000000
O    -2.258000000     9.315000000     0.386000000
H    -2.284000000     8.483000000     0.857000000
H    -1.327000000     9.470000000     0.225000000
O    -1.658000000     4.580000000    -3.579000000
H    -1.450000000     5.413000000    -3.156000000
H    -2.318000000     4.182000000    -3.011000000
O    -5.310000000     6.164000000    -3.134000000
H    -4.712000000     6.322000000    -3.865000000
H    -4.763000000     5.756000000    -2.462000000
O    -5.005000000     6.687000000     1.762000000
H    -4.159000000     6.706000000     1.314000000
H    -4.822000000     7.039000000     2.633000000
O     1.375000000     5.670000000     0.823000000
H     1.633000000     5.126000000     0.078000000
H     0.591000000     5.245000000     1.169000000
O     3.139000000     7.397000000     2.231000000
H     2.531000000     8.122000000     2.085000000
H     2.731000000     6.650000000     1.793000000
O     2.099000000     7.912000000    -1.579000000
H     2.311000000     7.833000000    -2.509000000
H     2.459000000     7.118000000    -1.183000000
O    -5.034000000     5.153000000     5.377000000
H    -4.847000000     4.282000000     5.726000000
H    -4.177000000     5.504000000     5.137000000
O    -1.763000000     7.006000000     1.900000000
H    -1.743000000     6.068000000     1.713000000
H    -0.843000000     7.253000000     1.987000000
O    -2.558000000     6.372000000     5.311000000
H    -1.616000000     6.329000000     5.146000000
H    -2.910000000     6.857000000     4.565000000
O    -1.104000000     6.620000000    -1.359000000
H    -1.573000000     5.981000000    -0.822000000
H    -0.201000000     6.579000000    -1.045000000
O     0.912000000     9.206000000     2.247000000
H     0.968000000     9.738000000     3.041000000
H     0.199000000     9.600000000     1.745000000
O    -7.066000000     5.513000000     0.487000000
H    -6.407000000     5.819000000     1.110000000
H    -7.684000000     5.011000000     1.020000000
O    -4.007000000     4.995000000    -1.047000000
H    -4.860000000     4.907000000    -0.622000000
H    -3.386000000     4.640000000    -0.411000000
O    -2.544000000     8.329000000    -3.302000000
H    -2.423000000     9.251000000    -3.078000000
H    -2.313000000     7.856000000    -2.502000000
O     1.091000000     2.213000000    -1.984000000
H     0.508000000     1.940000000    -2.693000000
H     0.721000000     1.807000000    -1.200000000
