215
-1455.79634
C     3.689000000     0.573000000    -2.669000000
H     3.268000000    -0.377000000    -2.987000000
C     4.342000000     0.761000000    -1.419000000
C     4.747000000     2.100000000    -1.118000000
H     5.097000000     2.297000000    -0.107000000
C     4.197000000    -0.323000000    -0.401000000
O     4.483000000    -1.611000000    -0.975000000
H     3.153000000    -0.241000000    -0.064000000
O     5.010000000    -0.118000000     0.694000000
C     4.408000000    -0.336000000     1.907000000
C     3.912000000     0.688000000     2.712000000
H     4.005000000     1.713000000     2.362000000
C     3.233000000     0.530000000     3.879000000
O     2.516000000     1.556000000     4.482000000
C     2.765000000    -0.826000000     4.167000000
C     1.747000000    -1.132000000     5.246000000
H     2.019000000    -2.102000000     5.669000000
C     0.343000000    -1.110000000     4.681000000
C    -0.260000000    -2.287000000     4.311000000
H     0.341000000    -3.188000000     4.218000000
H     1.755000000    -0.459000000     6.105000000
C     3.138000000    -1.846000000     3.356000000
H     2.804000000    -2.847000000     3.617000000
C     4.024000000    -1.583000000     2.298000000
C     4.445000000    -2.862000000     1.520000000
H     4.496000000    -3.697000000     2.221000000
H     5.463000000    -2.807000000     1.130000000
C     3.472000000    -3.293000000     0.424000000
C     2.521000000    -4.318000000     0.546000000
H     2.566000000    -4.866000000     1.483000000
C     3.534000000    -2.599000000    -0.760000000
C     2.642000000    -2.859000000    -1.818000000
H     2.761000000    -2.351000000    -2.771000000
C     1.574000000    -3.738000000    -1.605000000
O     0.725000000    -3.973000000    -2.706000000
C    -0.649000000    -3.527000000    -2.649000000
C    -1.031000000    -2.976000000    -4.042000000
C    -2.388000000    -2.735000000    -4.311000000
H    -3.114000000    -2.879000000    -3.516000000
C    -0.032000000    -2.628000000    -4.987000000
H     1.016000000    -2.686000000    -4.703000000
O    -1.574000000    -4.519000000    -2.173000000
H    -0.737000000    -2.683000000    -1.949000000
C     1.541000000    -4.522000000    -0.456000000
C     0.427000000    -5.598000000    -0.245000000
H     0.686000000    -6.420000000     0.426000000
H     0.240000000    -6.112000000    -1.190000000
C    -0.842000000    -4.930000000     0.177000000
C    -0.972000000    -4.733000000     1.546000000
H    -0.142000000    -5.011000000     2.191000000
C    -1.799000000    -4.466000000    -0.757000000
C    -2.837000000    -3.663000000    -0.267000000
H    -3.464000000    -3.174000000    -1.008000000
C    -2.966000000    -3.404000000     1.105000000
O    -4.059000000    -2.616000000     1.499000000
C    -3.819000000    -1.278000000     1.919000000
C    -4.772000000    -0.170000000     1.282000000
C    -5.123000000    -0.272000000    -0.028000000
H    -4.733000000    -1.078000000    -0.644000000
C    -5.161000000     0.996000000     1.982000000
H    -5.010000000     1.107000000     3.053000000
O    -3.651000000    -1.142000000     3.346000000
H    -2.833000000    -0.953000000     1.556000000
C    -2.083000000    -4.030000000     2.013000000
C    -2.190000000    -3.731000000     3.547000000
H    -1.591000000    -4.512000000     4.019000000
H    -3.187000000    -3.909000000     3.956000000
C    -1.610000000    -2.345000000     3.912000000
C    -2.397000000    -1.195000000     3.920000000
C    -1.760000000     0.022000000     4.300000000
H    -2.303000000     0.958000000     4.196000000
C    -0.430000000     0.093000000     4.696000000
O     0.166000000     1.324000000     4.984000000
C     1.162000000     1.814000000     4.032000000
H     1.005000000     1.221000000     3.120000000
C     0.944000000     3.268000000     3.573000000
C     1.966000000     4.141000000     3.209000000
H     2.996000000     3.887000000     3.445000000
C    -0.343000000     3.591000000     3.223000000
H    -1.177000000     2.906000000     3.355000000
C    -0.660000000     4.906000000     2.675000000
O    -1.863000000     5.295000000     2.205000000
C     0.330000000     5.745000000     2.300000000
H     0.081000000     6.676000000     1.798000000
C     1.654000000     5.383000000     2.549000000
O     2.687000000     6.130000000     2.140000000
C     3.837000000     5.665000000     1.613000000
C     3.822000000     5.259000000     0.313000000
H     2.899000000     5.482000000    -0.216000000
C     5.003000000     5.613000000     2.321000000
H     5.093000000     5.831000000     3.382000000
C     6.165000000     5.158000000     1.724000000
H     7.096000000     5.172000000     2.284000000
C     6.165000000     4.791000000     0.413000000
H     7.043000000     4.367000000    -0.066000000
C     4.934000000     4.815000000    -0.293000000
O     4.969000000     4.407000000    -1.591000000
C     4.646000000     3.159000000    -2.002000000
C     3.973000000     2.985000000    -3.208000000
H     3.896000000     3.775000000    -3.951000000
C     3.547000000     1.704000000    -3.544000000
O     2.894000000     1.642000000    -4.725000000
C     2.940000000     0.521000000    -5.501000000
C     1.681000000     0.071000000    -5.900000000
H     0.783000000     0.518000000    -5.481000000
C     4.095000000    -0.063000000    -5.973000000
H     5.080000000     0.340000000    -5.751000000
C     4.034000000    -1.086000000    -6.888000000
H     4.975000000    -1.541000000    -7.184000000
C     2.834000000    -1.534000000    -7.331000000
H     2.877000000    -2.400000000    -7.987000000
C     1.637000000    -1.002000000    -6.810000000
O     0.455000000    -1.636000000    -7.063000000
C    -0.465000000    -2.121000000    -6.184000000
C    -1.784000000    -1.952000000    -6.466000000
H    -2.096000000    -1.397000000    -7.346000000
C    -2.778000000    -2.184000000    -5.551000000
O    -3.990000000    -1.648000000    -5.769000000
C    -4.920000000    -1.594000000    -4.775000000
C    -4.763000000    -0.566000000    -3.858000000
H    -3.850000000     0.023000000    -3.871000000
C    -6.077000000    -2.304000000    -4.932000000
H    -6.151000000    -3.141000000    -5.621000000
C    -7.080000000    -2.108000000    -4.015000000
H    -7.981000000    -2.714000000    -4.074000000
C    -7.000000000    -1.149000000    -3.018000000
H    -7.793000000    -0.992000000    -2.291000000
C    -5.883000000    -0.320000000    -2.967000000
O    -5.817000000     0.800000000    -2.102000000
C    -5.805000000     0.729000000    -0.691000000
C    -6.043000000     1.934000000     0.012000000
H    -6.506000000     2.810000000    -0.436000000
C    -5.786000000     2.041000000     1.361000000
O    -6.062000000     3.236000000     1.970000000
C    -5.025000000     3.714000000     2.793000000
C    -5.230000000     3.715000000     4.159000000
H    -6.037000000     3.255000000     4.723000000
C    -4.223000000     4.221000000     4.947000000
H    -4.374000000     4.168000000     6.022000000
C    -3.112000000     4.777000000     4.309000000
H    -2.381000000     5.239000000     4.967000000
C    -2.999000000     4.819000000     2.913000000
C    -3.984000000     4.295000000     2.169000000
H    -3.941000000     4.342000000     1.084000000
C    -0.175000000     0.424000000    -1.631000000
H     0.116000000     0.183000000    -2.651000000
C     0.475000000    -0.226000000    -0.532000000
H     1.222000000    -1.015000000    -0.559000000
C     0.026000000     0.138000000     0.725000000
H     0.356000000    -0.468000000     1.603000000
C    -1.146000000     0.920000000     0.896000000
H    -1.514000000     1.165000000     1.889000000
C    -1.750000000     1.469000000    -0.215000000
H    -2.590000000     2.145000000    -0.077000000
C    -1.304000000     1.230000000    -1.519000000
C    -1.983000000     1.859000000    -2.676000000
O    -2.854000000     2.711000000    -2.554000000
O    -1.641000000     1.598000000    -3.839000000
O    -1.430000000     7.398000000    -0.848000000
H    -0.985000000     6.654000000    -1.253000000
H    -0.745000000     7.845000000    -0.350000000
O    -6.485000000     5.570000000    -1.729000000
H    -5.545000000     5.515000000    -1.555000000
H    -6.673000000     4.803000000    -2.270000000
O    -4.277000000     5.724000000    -8.023000000
H    -4.580000000     5.254000000    -7.246000000
H    -4.058000000     6.599000000    -7.703000000
O    -5.284000000     3.181000000    -3.158000000
H    -4.462000000     2.905000000    -2.752000000
H    -5.767000000     2.367000000    -3.301000000
O     0.376000000     8.302000000    -3.479000000
H    -0.534000000     8.012000000    -3.542000000
H     0.816000000     7.607000000    -2.988000000
O    -5.758000000     1.047000000    -6.493000000
H    -5.581000000     0.689000000    -5.623000000
H    -5.500000000     1.966000000    -6.431000000
O     2.231000000     5.013000000    -5.906000000
H     1.431000000     4.835000000    -6.401000000
H     2.035000000     5.810000000    -5.414000000
O    -2.215000000     4.610000000    -4.687000000
H    -2.078000000     5.265000000    -4.003000000
H    -2.333000000     3.788000000    -4.212000000
O    -1.613000000     1.482000000    -6.504000000
H    -1.710000000     1.290000000    -5.571000000
H    -1.367000000     2.406000000    -6.534000000
O    -4.887000000     3.910000000    -5.761000000
H    -3.992000000     4.153000000    -5.523000000
H    -5.303000000     3.685000000    -4.929000000
O    -3.797000000     5.552000000    -1.575000000
H    -3.699000000     4.674000000    -1.943000000
H    -2.903000000     5.830000000    -1.377000000
O     1.204000000     3.194000000    -0.104000000
H     1.007000000     2.512000000    -0.746000000
H     0.786000000     2.892000000     0.702000000
O    -0.421000000     5.122000000    -2.190000000
H    -0.174000000     4.802000000    -1.322000000
H    -0.048000000     4.483000000    -2.797000000
O    -1.736000000     1.063000000    -9.272000000
H    -1.654000000     1.197000000    -8.327000000
H    -2.648000000     1.278000000    -9.465000000
O    -2.374000000     7.670000000    -3.898000000
H    -2.523000000     8.048000000    -3.031000000
H    -3.198000000     7.812000000    -4.365000000
O    -4.303000000     8.366000000    -1.398000000
H    -4.297000000     7.508000000    -1.822000000
H    -3.596000000     8.319000000    -0.754000000
O     0.670000000     3.012000000    -3.605000000
H     1.375000000     2.455000000    -3.935000000
H    -0.133000000     2.576000000    -3.890000000
O    -0.982000000     4.272000000    -7.298000000
H    -1.517000000     4.756000000    -7.928000000
H    -1.378000000     4.465000000    -6.449000000
O     0.534000000     2.470000000    -8.980000000
H     0.295000000     3.213000000    -8.427000000
H    -0.296000000     2.032000000    -9.166000000
