215
-1446.70079
C     1.834000000     3.081000000     3.776000000
H     2.774000000     3.084000000     3.230000000
C     1.091000000     2.012000000     4.158000000
C    -0.094000000     2.344000000     4.867000000
H    -0.666000000     1.545000000     5.331000000
C     1.507000000     0.583000000     3.829000000
O     2.949000000     0.555000000     3.774000000
H     1.163000000     0.285000000     2.828000000
O     1.022000000    -0.344000000     4.881000000
C     0.520000000    -1.573000000     4.467000000
C    -0.862000000    -1.800000000     4.516000000
H    -1.494000000    -0.970000000     4.823000000
C    -1.450000000    -2.855000000     3.914000000
O    -2.782000000    -2.760000000     3.585000000
C    -0.582000000    -3.828000000     3.386000000
C    -1.139000000    -4.963000000     2.504000000
H    -0.417000000    -5.782000000     2.540000000
C    -1.180000000    -4.565000000     1.014000000
C    -0.134000000    -4.865000000     0.108000000
H     0.737000000    -5.328000000     0.566000000
H    -2.139000000    -5.177000000     2.887000000
C     0.760000000    -3.724000000     3.539000000
H     1.317000000    -4.467000000     2.973000000
C     1.366000000    -2.579000000     4.009000000
C     2.873000000    -2.401000000     3.982000000
H     3.365000000    -3.375000000     3.983000000
H     3.198000000    -1.986000000     4.939000000
C     3.452000000    -1.674000000     2.808000000
C     4.014000000    -2.392000000     1.781000000
H     4.019000000    -3.478000000     1.831000000
C     3.554000000    -0.267000000     2.742000000
C     4.105000000     0.311000000     1.626000000
H     4.028000000     1.391000000     1.530000000
C     4.624000000    -0.452000000     0.563000000
O     4.904000000     0.270000000    -0.581000000
C     3.909000000     0.306000000    -1.625000000
C     3.579000000     1.751000000    -2.207000000
C     3.270000000     1.864000000    -3.551000000
H     3.457000000     1.024000000    -4.214000000
C     3.572000000     2.895000000    -1.341000000
H     3.920000000     2.739000000    -0.323000000
O     4.275000000    -0.622000000    -2.656000000
H     2.941000000     0.041000000    -1.175000000
C     4.574000000    -1.809000000     0.643000000
C     4.950000000    -2.613000000    -0.560000000
H     5.197000000    -3.612000000    -0.195000000
H     5.861000000    -2.235000000    -1.029000000
C     3.778000000    -2.652000000    -1.555000000
C     2.856000000    -3.694000000    -1.352000000
H     2.966000000    -4.345000000    -0.489000000
C     3.636000000    -1.809000000    -2.651000000
C     2.482000000    -1.943000000    -3.468000000
H     2.370000000    -1.215000000    -4.267000000
C     1.681000000    -3.017000000    -3.265000000
O     0.482000000    -3.106000000    -3.969000000
C    -0.576000000    -2.447000000    -3.278000000
C    -1.168000000    -1.282000000    -4.108000000
C    -0.554000000    -0.780000000    -5.229000000
H     0.402000000    -1.095000000    -5.637000000
C    -2.414000000    -0.812000000    -3.641000000
H    -2.781000000    -1.210000000    -2.698000000
O    -1.521000000    -3.470000000    -2.997000000
H    -0.239000000    -2.019000000    -2.323000000
C     1.883000000    -3.955000000    -2.258000000
C     0.938000000    -5.088000000    -2.065000000
H     1.386000000    -5.952000000    -1.569000000
H     0.650000000    -5.531000000    -3.021000000
C    -0.249000000    -4.731000000    -1.287000000
C    -1.432000000    -4.143000000    -1.719000000
C    -2.540000000    -3.842000000    -0.881000000
H    -3.412000000    -3.306000000    -1.246000000
C    -2.451000000    -4.150000000     0.491000000
O    -3.335000000    -3.579000000     1.338000000
C    -3.086000000    -2.398000000     2.138000000
H    -2.134000000    -1.962000000     1.801000000
C    -4.234000000    -1.361000000     2.101000000
C    -4.152000000    -0.307000000     2.988000000
H    -3.439000000    -0.287000000     3.808000000
C    -5.280000000    -1.409000000     1.109000000
H    -5.347000000    -2.256000000     0.431000000
C    -6.092000000    -0.315000000     0.928000000
O    -7.031000000    -0.273000000    -0.051000000
C    -6.106000000     0.670000000     1.905000000
H    -6.955000000     1.348000000     1.918000000
C    -5.177000000     0.620000000     2.958000000
O    -5.270000000     1.585000000     3.857000000
C    -4.466000000     1.774000000     4.958000000
C    -3.368000000     2.565000000     4.723000000
H    -3.109000000     2.960000000     3.744000000
C    -4.925000000     1.441000000     6.186000000
H    -5.854000000     0.881000000     6.259000000
C    -4.221000000     1.927000000     7.265000000
H    -4.632000000     1.823000000     8.267000000
C    -3.154000000     2.773000000     7.103000000
H    -2.839000000     3.267000000     8.019000000
C    -2.725000000     3.170000000     5.852000000
O    -1.706000000     4.015000000     5.705000000
C    -0.541000000     3.660000000     5.062000000
C     0.140000000     4.707000000     4.524000000
H    -0.149000000     5.750000000     4.630000000
C     1.352000000     4.379000000     3.872000000
O     2.171000000     5.488000000     3.477000000
C     3.047000000     5.535000000     2.436000000
C     2.613000000     5.442000000     1.090000000
H     1.564000000     5.319000000     0.830000000
C     4.394000000     5.702000000     2.769000000
H     4.700000000     5.648000000     3.811000000
C     5.329000000     5.786000000     1.735000000
H     6.390000000     5.850000000     1.959000000
C     4.922000000     5.722000000     0.408000000
H     5.651000000     5.807000000    -0.394000000
C     3.586000000     5.548000000     0.085000000
O     3.208000000     5.369000000    -1.251000000
C     3.141000000     4.146000000    -1.852000000
C     2.887000000     4.176000000    -3.220000000
H     2.536000000     5.072000000    -3.727000000
C     2.933000000     3.066000000    -4.062000000
O     3.027000000     3.237000000    -5.441000000
C     2.453000000     2.459000000    -6.438000000
C     1.215000000     2.034000000    -6.253000000
H     0.583000000     2.296000000    -5.409000000
C     3.217000000     2.122000000    -7.545000000
H     4.197000000     2.528000000    -7.781000000
C     2.691000000     1.178000000    -8.485000000
H     3.339000000     1.051000000    -9.349000000
C     1.341000000     0.792000000    -8.354000000
H     0.850000000     0.174000000    -9.101000000
C     0.626000000     1.198000000    -7.204000000
O    -0.685000000     0.812000000    -7.065000000
C    -1.265000000     0.233000000    -5.938000000
C    -2.501000000     0.715000000    -5.505000000
H    -2.941000000     1.538000000    -6.062000000
C    -3.042000000     0.199000000    -4.349000000
O    -4.166000000     0.749000000    -3.841000000
C    -5.142000000    -0.059000000    -3.250000000
C    -5.694000000    -1.136000000    -3.933000000
H    -5.236000000    -1.370000000    -4.891000000
C    -6.666000000    -1.895000000    -3.335000000
H    -7.151000000    -2.734000000    -3.826000000
C    -7.135000000    -1.597000000    -2.078000000
H    -7.932000000    -2.108000000    -1.544000000
C    -6.571000000    -0.520000000    -1.317000000
C    -5.540000000     0.225000000    -1.915000000
H    -5.028000000     0.999000000    -1.349000000
C    -1.850000000     0.633000000     0.047000000
H    -2.905000000     0.371000000     0.054000000
C    -0.964000000    -0.268000000    -0.443000000
H    -1.315000000    -1.243000000    -0.769000000
C     0.396000000    -0.068000000    -0.360000000
H     1.108000000    -0.790000000    -0.681000000
C     0.834000000     1.125000000     0.223000000
H     1.901000000     1.278000000     0.362000000
C    -0.079000000     2.130000000     0.587000000
H     0.191000000     3.059000000     1.082000000
C    -1.444000000     1.894000000     0.408000000
C    -2.439000000     3.066000000     0.485000000
O    -1.940000000     4.123000000     0.636000000
O    -3.631000000     2.977000000     0.319000000
O    -4.271000000     7.076000000    -2.675000000
H    -3.474000000     6.592000000    -2.894000000
H    -4.426000000     6.877000000    -1.752000000
O    -3.081000000     8.013000000     1.153000000
H    -2.618000000     7.613000000     1.889000000
H    -3.648000000     7.317000000     0.820000000
O    -0.057000000     5.088000000    -0.835000000
H     0.311000000     4.333000000    -1.295000000
H    -0.715000000     4.714000000    -0.250000000
O    -6.402000000     4.210000000    -3.345000000
H    -7.049000000     4.823000000    -3.692000000
H    -6.745000000     3.346000000    -3.570000000
O    -2.515000000     5.647000000     2.991000000
H    -2.061000000     5.286000000     2.229000000
H    -2.717000000     4.884000000     3.533000000
O    -4.481000000     5.541000000    -0.011000000
H    -5.248000000     5.223000000     0.465000000
H    -3.836000000     4.839000000     0.078000000
O    -7.667000000     3.171000000     5.504000000
H    -7.367000000     3.604000000     6.303000000
H    -6.897000000     3.158000000     4.936000000
O    -4.624000000     3.851000000    -5.258000000
H    -5.407000000     3.963000000    -4.718000000
H    -4.864000000     3.172000000    -5.889000000
O    -1.695000000     6.019000000    -2.986000000
H    -0.899000000     6.162000000    -2.475000000
H    -1.989000000     5.144000000    -2.732000000
O     0.602000000     7.911000000    -0.037000000
H     0.414000000     7.066000000    -0.445000000
H     0.471000000     7.760000000     0.899000000
O    -0.319000000     7.706000000     2.469000000
H    -0.937000000     7.441000000     3.149000000
H    -0.068000000     8.599000000     2.708000000
O    -1.926000000     9.315000000    -0.972000000
H    -2.481000000     8.594000000    -0.672000000
H    -1.052000000     9.093000000    -0.652000000
O    -3.275000000     7.666000000     4.654000000
H    -3.083000000     6.974000000     4.021000000
H    -3.822000000     7.241000000     5.315000000
O    -7.561000000     4.024000000    -0.738000000
H    -7.075000000     4.196000000    -1.544000000
H    -8.231000000     4.708000000    -0.711000000
O    -2.504000000     5.518000000    -5.656000000
H    -2.385000000     5.939000000    -4.805000000
H    -3.055000000     4.757000000    -5.472000000
O    -6.013000000     5.391000000     3.798000000
H    -5.860000000     4.873000000     3.007000000
H    -6.909000000     5.713000000     3.704000000
O    -2.927000000     3.483000000    -2.638000000
H    -3.819000000     3.254000000    -2.901000000
H    -2.958000000     3.500000000    -1.681000000
O    -5.942000000     3.732000000     1.516000000
H    -6.461000000     3.758000000     0.712000000
H    -5.187000000     3.187000000     1.296000000
O    -0.245000000     2.839000000    -2.501000000
H    -1.174000000     3.040000000    -2.615000000
H    -0.235000000     1.953000000    -2.137000000
