215
-1431.77954
C     2.381000000     3.029000000     3.478000000
H     3.404000000     2.727000000     3.264000000
C     1.419000000     2.041000000     3.650000000
C     0.083000000     2.418000000     3.883000000
H    -0.657000000     1.622000000     3.907000000
C     1.856000000     0.561000000     3.470000000
O     3.272000000     0.355000000     3.401000000
H     1.331000000     0.065000000     2.641000000
O     1.344000000    -0.171000000     4.576000000
C     0.792000000    -1.413000000     4.305000000
C    -0.592000000    -1.402000000     4.257000000
H    -1.222000000    -0.569000000     4.558000000
C    -1.235000000    -2.560000000     3.843000000
O    -2.545000000    -2.564000000     3.674000000
C    -0.489000000    -3.592000000     3.317000000
C    -1.280000000    -4.731000000     2.704000000
H    -0.784000000    -5.703000000     2.680000000
C    -1.460000000    -4.421000000     1.279000000
C    -0.483000000    -4.955000000     0.371000000
H     0.428000000    -5.459000000     0.682000000
H    -2.232000000    -4.935000000     3.199000000
C     0.901000000    -3.547000000     3.308000000
H     1.435000000    -4.373000000     2.846000000
C     1.575000000    -2.455000000     3.843000000
C     3.135000000    -2.535000000     3.834000000
H     3.587000000    -3.512000000     4.017000000
H     3.475000000    -1.979000000     4.711000000
C     3.703000000    -1.834000000     2.574000000
C     4.124000000    -2.608000000     1.496000000
H     3.813000000    -3.633000000     1.679000000
C     3.846000000    -0.435000000     2.437000000
C     4.357000000     0.213000000     1.298000000
H     4.318000000     1.297000000     1.228000000
C     4.742000000    -0.585000000     0.234000000
O     4.999000000     0.037000000    -1.014000000
C     3.940000000     0.111000000    -1.942000000
C     3.895000000     1.544000000    -2.515000000
C     3.292000000     1.816000000    -3.771000000
H     3.071000000     0.930000000    -4.361000000
C     4.231000000     2.618000000    -1.686000000
H     4.740000000     2.382000000    -0.754000000
O     4.019000000    -0.844000000    -2.956000000
H     3.016000000     0.005000000    -1.354000000
C     4.470000000    -1.963000000     0.320000000
C     4.706000000    -2.879000000    -0.888000000
H     4.798000000    -3.918000000    -0.565000000
H     5.636000000    -2.600000000    -1.387000000
C     3.477000000    -2.876000000    -1.857000000
C     2.547000000    -3.869000000    -1.626000000
H     2.798000000    -4.626000000    -0.887000000
C     3.209000000    -1.920000000    -2.865000000
C     2.088000000    -2.010000000    -3.652000000
H     1.761000000    -1.248000000    -4.354000000
C     1.185000000    -3.054000000    -3.406000000
O    -0.001000000    -3.005000000    -4.047000000
C    -1.104000000    -2.539000000    -3.209000000
C    -1.900000000    -1.511000000    -4.019000000
C    -1.247000000    -0.714000000    -5.024000000
H    -0.186000000    -0.845000000    -5.222000000
C    -3.231000000    -1.212000000    -3.698000000
H    -3.778000000    -1.921000000    -3.082000000
O    -1.781000000    -3.650000000    -2.817000000
H    -0.702000000    -2.022000000    -2.325000000
C     1.442000000    -4.065000000    -2.416000000
C     0.477000000    -5.198000000    -2.039000000
H     1.023000000    -6.060000000    -1.650000000
H    -0.059000000    -5.591000000    -2.907000000
C    -0.591000000    -4.743000000    -1.021000000
C    -1.639000000    -3.929000000    -1.481000000
C    -2.574000000    -3.465000000    -0.604000000
H    -3.484000000    -2.953000000    -0.908000000
C    -2.557000000    -3.752000000     0.762000000
O    -3.555000000    -3.125000000     1.540000000
C    -3.102000000    -2.106000000     2.383000000
H    -2.262000000    -1.577000000     1.910000000
C    -4.198000000    -1.060000000     2.447000000
C    -4.372000000    -0.277000000     3.576000000
H    -3.651000000    -0.503000000     4.358000000
C    -5.024000000    -0.812000000     1.285000000
H    -4.815000000    -1.373000000     0.378000000
C    -6.087000000     0.049000000     1.434000000
O    -6.960000000     0.310000000     0.350000000
C    -6.292000000     0.755000000     2.613000000
H    -7.098000000     1.469000000     2.758000000
C    -5.388000000     0.639000000     3.694000000
O    -5.584000000     1.484000000     4.838000000
C    -4.519000000     2.330000000     5.322000000
C    -3.554000000     2.805000000     4.415000000
H    -3.613000000     2.639000000     3.342000000
C    -4.436000000     2.657000000     6.649000000
H    -5.187000000     2.356000000     7.375000000
C    -3.389000000     3.421000000     7.236000000
H    -3.278000000     3.556000000     8.308000000
C    -2.346000000     3.769000000     6.412000000
H    -1.438000000     4.112000000     6.901000000
C    -2.463000000     3.539000000     5.002000000
O    -1.524000000     4.142000000     4.178000000
C    -0.256000000     3.748000000     4.006000000
C     0.698000000     4.682000000     3.641000000
H     0.446000000     5.711000000     3.400000000
C     2.004000000     4.297000000     3.394000000
O     2.953000000     5.263000000     3.180000000
C     3.922000000     5.151000000     2.234000000
C     3.537000000     4.835000000     0.929000000
H     2.505000000     4.671000000     0.629000000
C     5.301000000     5.481000000     2.558000000
H     5.596000000     5.737000000     3.572000000
C     6.225000000     5.565000000     1.526000000
H     7.203000000     5.982000000     1.753000000
C     5.847000000     5.286000000     0.185000000
H     6.471000000     5.412000000    -0.696000000
C     4.519000000     5.008000000    -0.033000000
O     4.103000000     5.054000000    -1.308000000
C     3.953000000     3.941000000    -2.095000000
C     3.408000000     4.209000000    -3.366000000
H     3.307000000     5.239000000    -3.698000000
C     3.286000000     3.137000000    -4.219000000
O     2.844000000     3.402000000    -5.495000000
C     2.171000000     2.500000000    -6.264000000
C     0.791000000     2.479000000    -6.180000000
H     0.320000000     3.178000000    -5.493000000
C     2.877000000     1.519000000    -6.964000000
H     3.956000000     1.594000000    -7.066000000
C     2.171000000     0.433000000    -7.413000000
H     2.647000000    -0.366000000    -7.976000000
C     0.802000000     0.323000000    -7.198000000
H     0.265000000    -0.577000000    -7.488000000
C     0.072000000     1.403000000    -6.705000000
O    -1.283000000     1.282000000    -6.471000000
C    -1.872000000     0.307000000    -5.637000000
C    -3.183000000     0.576000000    -5.297000000
H    -3.611000000     1.517000000    -5.633000000
C    -3.856000000    -0.194000000    -4.397000000
O    -5.192000000     0.147000000    -4.169000000
C    -5.899000000    -0.401000000    -3.132000000
C    -6.575000000    -1.545000000    -3.447000000
H    -6.406000000    -2.042000000    -4.398000000
C    -7.230000000    -2.160000000    -2.353000000
H    -7.539000000    -3.190000000    -2.513000000
C    -7.376000000    -1.515000000    -1.171000000
H    -7.944000000    -2.044000000    -0.410000000
C    -6.862000000    -0.310000000    -0.916000000
C    -6.018000000     0.226000000    -1.898000000
H    -5.294000000     1.011000000    -1.695000000
C    -1.954000000     1.724000000    -0.867000000
H    -3.010000000     1.777000000    -1.116000000
C    -1.343000000     0.493000000    -0.848000000
H    -1.839000000    -0.414000000    -1.184000000
C    -0.002000000     0.476000000    -0.412000000
H     0.433000000    -0.552000000    -0.432000000
C     0.711000000     1.612000000    -0.160000000
H     1.770000000     1.634000000     0.082000000
C    -0.004000000     2.800000000    -0.222000000
H     0.502000000     3.733000000     0.015000000
C    -1.330000000     2.958000000    -0.509000000
C    -2.085000000     4.241000000    -0.550000000
O    -1.552000000     5.269000000    -0.253000000
O    -3.086000000     4.242000000    -1.248000000
O    -2.818000000     6.143000000    -2.945000000
H    -2.706000000     5.645000000    -2.135000000
H    -2.667000000     7.053000000    -2.689000000
O    -4.414000000     6.439000000    -0.207000000
H    -3.855000000     5.676000000    -0.354000000
H    -5.058000000     6.404000000    -0.914000000
O    -3.424000000     6.618000000     4.376000000
H    -3.164000000     7.429000000     4.812000000
H    -2.792000000     6.516000000     3.664000000
O    -0.632000000     5.351000000    -4.199000000
H    -1.343000000     5.768000000    -3.712000000
H    -0.434000000     4.559000000    -3.700000000
O    -1.667000000     6.825000000     2.089000000
H    -1.622000000     6.271000000     1.310000000
H    -0.776000000     7.158000000     2.198000000
O    -8.633000000     5.622000000    -0.289000000
H    -7.889000000     5.041000000    -0.446000000
H    -8.271000000     6.342000000     0.228000000
O     0.566000000     8.598000000     0.860000000
H     0.362000000     9.458000000     1.228000000
H     1.521000000     8.580000000     0.808000000
O    -0.346000000     7.202000000    -1.367000000
H    -0.718000000     6.523000000    -0.804000000
H     0.117000000     7.785000000    -0.764000000
O    -6.306000000     6.168000000    -2.188000000
H    -6.299000000     6.900000000    -2.805000000
H    -5.728000000     5.515000000    -2.583000000
O     1.653000000     7.052000000    -5.133000000
H     1.131000000     6.593000000    -4.476000000
H     1.688000000     6.450000000    -5.876000000
O    -5.723000000     9.114000000     0.592000000
H    -6.476000000     9.298000000     0.030000000
H    -5.578000000     8.173000000     0.497000000
O    -7.540000000     3.274000000    -1.188000000
H    -6.751000000     3.320000000    -1.729000000
H    -7.819000000     2.360000000    -1.249000000
O    -3.313000000     9.203000000     2.158000000
H    -2.875000000     8.418000000     1.828000000
H    -4.121000000     9.259000000     1.647000000
O    -1.091000000     5.965000000    -6.721000000
H    -1.548000000     5.204000000    -7.079000000
H    -0.841000000     5.700000000    -5.836000000
O    -1.434000000     9.358000000    -2.628000000
H    -0.977000000     8.695000000    -2.110000000
H    -0.892000000     9.469000000    -3.409000000
O    -3.806000000     4.421000000    -4.711000000
H    -3.327000000     4.847000000    -4.000000000
H    -3.674000000     4.993000000    -5.466000000
O    -5.110000000     3.296000000    -2.579000000
H    -4.754000000     3.597000000    -3.415000000
H    -4.473000000     3.589000000    -1.928000000
O    -5.413000000     5.152000000     2.250000000
H    -4.714000000     5.389000000     2.859000000
H    -5.108000000     5.471000000     1.400000000
O    -0.594000000     2.191000000    -3.480000000
H    -1.098000000     1.548000000    -3.979000000
H    -0.930000000     2.118000000    -2.587000000
