215
-1464.12104
C     2.544000000     3.206000000     3.630000000
H     3.497000000     2.987000000     3.154000000
C     1.803000000     2.172000000     4.184000000
C     0.532000000     2.465000000     4.611000000
H    -0.055000000     1.586000000     4.864000000
C     2.198000000     0.736000000     3.993000000
O     3.593000000     0.511000000     3.648000000
H     1.665000000     0.400000000     3.091000000
O     1.781000000    -0.199000000     5.014000000
C     1.243000000    -1.388000000     4.567000000
C    -0.138000000    -1.372000000     4.406000000
H    -0.628000000    -0.490000000     4.810000000
C    -0.853000000    -2.367000000     3.743000000
O    -2.213000000    -2.430000000     3.603000000
C    -0.071000000    -3.484000000     3.267000000
C    -0.772000000    -4.696000000     2.640000000
H    -0.233000000    -5.625000000     2.842000000
C    -1.132000000    -4.580000000     1.183000000
C    -0.109000000    -4.857000000     0.268000000
H     0.856000000    -5.241000000     0.586000000
H    -1.723000000    -4.817000000     3.162000000
C     1.305000000    -3.526000000     3.374000000
H     1.892000000    -4.354000000     2.986000000
C     1.984000000    -2.411000000     3.932000000
C     3.458000000    -2.360000000     3.802000000
H     3.932000000    -3.335000000     3.929000000
H     3.888000000    -1.890000000     4.689000000
C     3.850000000    -1.648000000     2.536000000
C     4.148000000    -2.362000000     1.311000000
H     4.262000000    -3.443000000     1.282000000
C     3.826000000    -0.254000000     2.521000000
C     4.026000000     0.341000000     1.288000000
H     4.024000000     1.428000000     1.294000000
C     4.378000000    -0.282000000     0.162000000
O     4.509000000     0.502000000    -0.988000000
C     3.499000000     0.447000000    -2.024000000
C     3.250000000     1.836000000    -2.629000000
C     2.648000000     2.058000000    -3.865000000
H     2.410000000     1.223000000    -4.520000000
C     3.387000000     2.957000000    -1.792000000
H     3.672000000     2.863000000    -0.747000000
O     3.893000000    -0.539000000    -2.998000000
H     2.584000000     0.045000000    -1.564000000
C     4.482000000    -1.661000000     0.165000000
C     4.874000000    -2.348000000    -1.098000000
H     5.406000000    -3.272000000    -0.858000000
H     5.527000000    -1.630000000    -1.598000000
C     3.670000000    -2.611000000    -1.939000000
C     2.869000000    -3.738000000    -1.666000000
H     3.087000000    -4.420000000    -0.848000000
C     3.283000000    -1.770000000    -2.974000000
C     2.094000000    -1.950000000    -3.730000000
H     1.814000000    -1.213000000    -4.479000000
C     1.299000000    -3.006000000    -3.358000000
O     0.060000000    -3.087000000    -3.891000000
C    -1.047000000    -2.570000000    -3.222000000
C    -1.889000000    -1.622000000    -4.038000000
C    -1.369000000    -1.068000000    -5.223000000
H    -0.478000000    -1.404000000    -5.748000000
C    -3.121000000    -1.120000000    -3.547000000
H    -3.401000000    -1.622000000    -2.625000000
O    -1.859000000    -3.762000000    -2.713000000
H    -0.801000000    -2.008000000    -2.308000000
C     1.689000000    -3.881000000    -2.374000000
C     0.730000000    -5.011000000    -2.016000000
H     1.386000000    -5.738000000    -1.532000000
H     0.358000000    -5.553000000    -2.888000000
C    -0.417000000    -4.727000000    -1.085000000
C    -1.656000000    -4.136000000    -1.441000000
C    -2.641000000    -3.794000000    -0.524000000
H    -3.562000000    -3.357000000    -0.901000000
C    -2.358000000    -3.972000000     0.823000000
O    -3.231000000    -3.439000000     1.764000000
C    -2.847000000    -2.157000000     2.300000000
H    -2.039000000    -1.675000000     1.730000000
C    -4.044000000    -1.262000000     2.406000000
C    -4.068000000    -0.227000000     3.392000000
H    -3.230000000    -0.100000000     4.074000000
C    -5.015000000    -1.278000000     1.395000000
H    -4.965000000    -1.994000000     0.579000000
C    -6.134000000    -0.475000000     1.499000000
O    -7.098000000    -0.474000000     0.513000000
C    -6.213000000     0.489000000     2.472000000
H    -7.064000000     1.156000000     2.362000000
C    -5.169000000     0.655000000     3.385000000
O    -5.324000000     1.615000000     4.293000000
C    -4.255000000     1.979000000     5.143000000
C    -3.263000000     2.839000000     4.743000000
H    -3.302000000     3.434000000     3.834000000
C    -4.203000000     1.523000000     6.459000000
H    -4.991000000     0.885000000     6.850000000
C    -3.031000000     1.668000000     7.191000000
H    -3.001000000     1.254000000     8.196000000
C    -1.932000000     2.392000000     6.760000000
H    -1.040000000     2.633000000     7.333000000
C    -2.132000000     3.087000000     5.544000000
O    -1.210000000     4.012000000     5.106000000
C     0.088000000     3.749000000     4.699000000
C     0.907000000     4.810000000     4.292000000
H     0.611000000     5.844000000     4.448000000
C     2.092000000     4.531000000     3.740000000
O     2.957000000     5.552000000     3.352000000
C     3.724000000     5.478000000     2.209000000
C     3.161000000     5.249000000     0.919000000
H     2.094000000     5.062000000     0.819000000
C     4.992000000     6.083000000     2.263000000
H     5.401000000     6.292000000     3.248000000
C     5.757000000     6.302000000     1.097000000
H     6.724000000     6.791000000     1.188000000
C     5.217000000     5.971000000    -0.140000000
H     5.815000000     6.145000000    -1.031000000
C     3.953000000     5.446000000    -0.236000000
O     3.371000000     5.350000000    -1.476000000
C     3.112000000     4.250000000    -2.228000000
C     2.559000000     4.482000000    -3.508000000
H     2.347000000     5.518000000    -3.759000000
C     2.338000000     3.372000000    -4.322000000
O     1.585000000     3.617000000    -5.490000000
C     1.280000000     2.553000000    -6.275000000
C    -0.026000000     1.995000000    -6.177000000
H    -0.702000000     2.455000000    -5.461000000
C     2.200000000     1.934000000    -7.105000000
H     3.217000000     2.309000000    -7.180000000
C     1.789000000     0.897000000    -7.957000000
H     2.578000000     0.557000000    -8.623000000
C     0.442000000     0.428000000    -7.969000000
H     0.123000000    -0.255000000    -8.751000000
C    -0.480000000     0.978000000    -7.037000000
O    -1.748000000     0.477000000    -6.985000000
C    -2.145000000    -0.161000000    -5.919000000
C    -3.371000000     0.350000000    -5.348000000
H    -3.937000000     1.081000000    -5.921000000
C    -3.846000000    -0.178000000    -4.223000000
O    -5.028000000     0.278000000    -3.729000000
C    -5.778000000    -0.487000000    -2.838000000
C    -6.002000000    -1.845000000    -3.184000000
H    -5.732000000    -2.280000000    -4.143000000
C    -6.682000000    -2.674000000    -2.310000000
H    -6.891000000    -3.701000000    -2.598000000
C    -7.032000000    -2.214000000    -1.080000000
H    -7.654000000    -2.795000000    -0.404000000
C    -6.857000000    -0.914000000    -0.782000000
C    -6.232000000     0.015000000    -1.638000000
H    -6.192000000     1.061000000    -1.346000000
C    -2.448000000     1.369000000    -0.020000000
H    -3.438000000     1.648000000    -0.372000000
C    -1.940000000     0.062000000    -0.340000000
H    -2.542000000    -0.633000000    -0.920000000
C    -0.582000000    -0.227000000    -0.225000000
H    -0.179000000    -1.221000000    -0.515000000
C     0.245000000     0.672000000     0.394000000
H     1.246000000     0.303000000     0.601000000
C    -0.274000000     1.886000000     0.839000000
H     0.441000000     2.517000000     1.361000000
C    -1.622000000     2.243000000     0.620000000
C    -2.143000000     3.600000000     0.967000000
O    -1.429000000     4.529000000     0.958000000
O    -3.378000000     3.738000000     0.949000000
O    -3.363000000     5.927000000    -1.350000000
H    -2.807000000     5.602000000    -0.641000000
H    -3.067000000     5.449000000    -2.124000000
O    -3.691000000     5.310000000     6.719000000
H    -3.086000000     5.734000000     6.109000000
H    -4.293000000     4.822000000     6.158000000
O    -0.248000000     5.374000000    -1.426000000
H    -0.182000000     4.464000000    -1.713000000
H    -0.602000000     5.320000000    -0.538000000
O    -3.641000000     5.953000000     2.688000000
H    -3.478000000     5.177000000     2.153000000
H    -4.242000000     6.483000000     2.165000000
O    -5.231000000     7.118000000    -3.007000000
H    -4.849000000     6.716000000    -2.228000000
H    -4.601000000     6.936000000    -3.705000000
O    -1.110000000     4.968000000    -4.889000000
H    -1.435000000     4.672000000    -4.038000000
H    -0.284000000     4.499000000    -5.006000000
O     0.286000000     7.913000000    -1.789000000
H     0.100000000     6.982000000    -1.916000000
H     0.477000000     7.993000000    -0.854000000
O    -1.083000000     7.023000000     0.942000000
H    -1.016000000     6.079000000     1.091000000
H    -2.006000000     7.224000000     1.097000000
O    -7.268000000     3.730000000     3.200000000
H    -7.311000000     4.134000000     2.334000000
H    -6.332000000     3.664000000     3.388000000
O    -6.551000000     6.850000000     3.453000000
H    -6.390000000     7.697000000     3.869000000
H    -6.182000000     6.210000000     4.062000000
O    -2.062000000     6.842000000     4.751000000
H    -2.134000000     7.796000000     4.751000000
H    -2.375000000     6.578000000     3.886000000
O    -5.624000000     3.525000000    -2.906000000
H    -5.997000000     3.219000000    -3.733000000
H    -6.057000000     4.363000000    -2.743000000
O    -8.571000000     4.880000000     0.187000000
H    -9.230000000     4.253000000    -0.111000000
H    -7.749000000     4.390000000     0.169000000
O    -3.701000000     8.084000000     0.538000000
H    -3.394000000     8.982000000     0.416000000
H    -3.444000000     7.632000000    -0.266000000
O     0.948000000     8.260000000     3.035000000
H     0.333000000     8.961000000     3.250000000
H     0.580000000     7.849000000     2.253000000
O    -3.004000000     3.924000000    -3.170000000
H    -3.245000000     3.876000000    -4.095000000
H    -3.765000000     3.576000000    -2.706000000
O    -6.180000000     3.467000000     0.329000000
H    -6.079000000     3.455000000    -0.623000000
H    -5.288000000     3.567000000     0.663000000
O    -0.640000000     2.782000000    -2.442000000
H    -1.569000000     2.917000000    -2.251000000
H    -0.434000000     1.937000000    -2.043000000
O    -0.386000000     5.886000000     7.134000000
H    -1.004000000     5.646000000     6.444000000
H    -0.854000000     5.703000000     7.949000000
