215
-1458.57461
C     2.783000000     3.023000000     3.945000000
H     3.769000000     2.604000000     3.760000000
C     1.689000000     2.188000000     4.047000000
C     0.413000000     2.786000000     4.369000000
H    -0.479000000     2.165000000     4.340000000
C     1.836000000     0.684000000     3.904000000
O     3.195000000     0.178000000     4.067000000
H     1.588000000     0.397000000     2.871000000
O     0.990000000    -0.031000000     4.836000000
C     0.380000000    -1.186000000     4.303000000
C    -1.010000000    -1.079000000     4.101000000
H    -1.489000000    -0.117000000     4.266000000
C    -1.641000000    -2.101000000     3.501000000
O    -2.935000000    -1.928000000     3.166000000
C    -0.994000000    -3.304000000     3.235000000
C    -1.756000000    -4.449000000     2.549000000
H    -1.259000000    -5.379000000     2.833000000
C    -1.763000000    -4.237000000     1.051000000
C    -0.806000000    -4.947000000     0.256000000
H    -0.069000000    -5.528000000     0.805000000
H    -2.772000000    -4.393000000     2.945000000
C     0.342000000    -3.431000000     3.472000000
H     0.815000000    -4.402000000     3.345000000
C     1.088000000    -2.364000000     4.006000000
C     2.550000000    -2.458000000     4.408000000
H     2.753000000    -3.492000000     4.693000000
H     2.750000000    -1.785000000     5.245000000
C     3.319000000    -1.994000000     3.232000000
C     3.782000000    -2.899000000     2.219000000
H     3.622000000    -3.960000000     2.391000000
C     3.538000000    -0.634000000     3.065000000
C     4.162000000    -0.141000000     2.010000000
H     4.310000000     0.934000000     1.953000000
C     4.514000000    -0.949000000     0.929000000
O     4.894000000    -0.268000000    -0.183000000
C     3.886000000    -0.231000000    -1.218000000
C     3.941000000     1.112000000    -1.912000000
C     3.829000000     1.191000000    -3.314000000
H     3.758000000     0.242000000    -3.839000000
C     3.928000000     2.244000000    -1.077000000
H     4.066000000     2.200000000     0.000000000
O     4.174000000    -1.263000000    -2.080000000
H     2.879000000    -0.390000000    -0.806000000
C     4.309000000    -2.357000000     1.027000000
C     4.590000000    -3.299000000    -0.143000000
H     4.863000000    -4.320000000     0.132000000
H     5.517000000    -3.024000000    -0.650000000
C     3.437000000    -3.333000000    -1.153000000
C     2.459000000    -4.360000000    -1.161000000
H     2.523000000    -5.096000000    -0.364000000
C     3.334000000    -2.362000000    -2.106000000
C     2.327000000    -2.326000000    -3.065000000
H     2.181000000    -1.547000000    -3.809000000
C     1.332000000    -3.356000000    -3.075000000
O     0.304000000    -3.150000000    -3.992000000
C    -0.935000000    -2.796000000    -3.344000000
C    -1.633000000    -1.645000000    -4.056000000
C    -0.894000000    -0.640000000    -4.663000000
H     0.173000000    -0.775000000    -4.818000000
C    -3.042000000    -1.502000000    -4.023000000
H    -3.665000000    -2.299000000    -3.624000000
O    -1.808000000    -3.883000000    -3.029000000
H    -0.663000000    -2.380000000    -2.363000000
C     1.404000000    -4.309000000    -2.077000000
C     0.308000000    -5.402000000    -1.944000000
H     0.726000000    -6.332000000    -1.554000000
H    -0.092000000    -5.605000000    -2.940000000
C    -0.869000000    -4.901000000    -1.147000000
C    -1.909000000    -4.198000000    -1.713000000
C    -2.867000000    -3.564000000    -0.958000000
H    -3.666000000    -3.013000000    -1.447000000
C    -2.786000000    -3.552000000     0.401000000
O    -3.721000000    -2.832000000     1.079000000
C    -3.325000000    -1.592000000     1.809000000
H    -2.379000000    -1.236000000     1.375000000
C    -4.353000000    -0.467000000     1.606000000
C    -4.086000000     0.774000000     2.206000000
H    -3.204000000     0.857000000     2.837000000
C    -5.382000000    -0.612000000     0.683000000
H    -5.554000000    -1.569000000     0.197000000
C    -6.301000000     0.416000000     0.565000000
O    -7.200000000     0.398000000    -0.445000000
C    -6.061000000     1.703000000     1.123000000
H    -6.736000000     2.518000000     0.878000000
C    -4.941000000     1.866000000     1.998000000
O    -4.714000000     3.093000000     2.582000000
C    -4.106000000     3.255000000     3.808000000
C    -2.914000000     3.947000000     3.842000000
H    -2.533000000     4.378000000     2.919000000
C    -4.658000000     2.719000000     4.990000000
H    -5.630000000     2.247000000     4.869000000
C    -3.880000000     2.778000000     6.136000000
H    -4.246000000     2.374000000     7.077000000
C    -2.603000000     3.446000000     6.161000000
H    -1.936000000     3.580000000     7.009000000
C    -2.146000000     4.019000000     4.979000000
O    -0.936000000     4.689000000     4.942000000
C     0.309000000     4.094000000     4.677000000
C     1.380000000     4.965000000     4.643000000
H     1.280000000     6.035000000     4.811000000
C     2.589000000     4.407000000     4.196000000
O     3.633000000     5.210000000     3.966000000
C     4.327000000     5.123000000     2.815000000
C     3.684000000     4.974000000     1.597000000
H     2.612000000     4.883000000     1.440000000
C     5.715000000     5.249000000     2.756000000
H     6.284000000     5.488000000     3.650000000
C     6.415000000     5.184000000     1.537000000
H     7.489000000     5.331000000     1.614000000
C     5.654000000     4.872000000     0.329000000
H     6.212000000     4.914000000    -0.603000000
C     4.279000000     4.876000000     0.352000000
O     3.539000000     4.576000000    -0.797000000
C     3.712000000     3.475000000    -1.651000000
C     3.648000000     3.529000000    -3.041000000
H     3.512000000     4.518000000    -3.471000000
C     3.706000000     2.395000000    -3.876000000
O     3.712000000     2.601000000    -5.202000000
C     2.676000000     2.200000000    -5.978000000
C     1.337000000     2.060000000    -5.552000000
H     1.123000000     2.330000000    -4.521000000
C     3.019000000     1.783000000    -7.251000000
H     4.039000000     1.893000000    -7.610000000
C     2.072000000     1.380000000    -8.185000000
H     2.422000000     1.013000000    -9.146000000
C     0.763000000     1.266000000    -7.732000000
H     0.077000000     0.802000000    -8.435000000
C     0.348000000     1.654000000    -6.507000000
O    -0.934000000     1.387000000    -6.129000000
C    -1.533000000     0.408000000    -5.341000000
C    -2.955000000     0.551000000    -5.296000000
H    -3.460000000     1.328000000    -5.864000000
C    -3.660000000    -0.403000000    -4.642000000
O    -4.987000000    -0.146000000    -4.473000000
C    -5.824000000    -0.742000000    -3.604000000
C    -6.424000000    -1.980000000    -3.777000000
H    -6.103000000    -2.640000000    -4.579000000
C    -7.276000000    -2.444000000    -2.748000000
H    -7.661000000    -3.455000000    -2.645000000
C    -7.556000000    -1.651000000    -1.666000000
H    -8.220000000    -2.054000000    -0.905000000
C    -7.080000000    -0.340000000    -1.590000000
C    -6.163000000     0.065000000    -2.530000000
H    -5.784000000     1.064000000    -2.330000000
C    -1.482000000     1.563000000    -1.071000000
H    -2.470000000     1.702000000    -1.502000000
C    -1.210000000     0.275000000    -0.668000000
H    -1.934000000    -0.515000000    -0.847000000
C    -0.046000000    -0.096000000    -0.072000000
H     0.092000000    -1.131000000     0.123000000
C     0.919000000     0.837000000     0.181000000
H     1.839000000     0.524000000     0.668000000
C     0.714000000     2.193000000    -0.132000000
H     1.512000000     2.898000000     0.086000000
C    -0.491000000     2.556000000    -0.794000000
C    -0.831000000     4.014000000    -1.048000000
O     0.035000000     4.822000000    -1.104000000
O    -1.964000000     4.365000000    -1.315000000
O    -1.838000000     7.344000000    -1.295000000
H    -1.567000000     6.454000000    -1.519000000
H    -2.046000000     7.303000000    -0.361000000
O    -4.380000000     4.416000000    -0.367000000
H    -3.469000000     4.406000000    -0.662000000
H    -4.335000000     4.168000000     0.556000000
O    -0.025000000     5.703000000     1.818000000
H     0.071000000     5.159000000     1.036000000
H    -0.108000000     5.076000000     2.537000000
O    -2.695000000     4.506000000    -3.856000000
H    -2.251000000     4.317000000    -3.030000000
H    -3.615000000     4.616000000    -3.613000000
O    -3.270000000     4.119000000    -6.438000000
H    -2.856000000     4.105000000    -5.575000000
H    -2.592000000     3.804000000    -7.035000000
O     1.157000000     7.507000000    -0.134000000
H     0.668000000     6.937000000    -0.728000000
H     0.980000000     7.152000000     0.737000000
O    -4.669000000     7.424000000    -3.406000000
H    -4.588000000     7.353000000    -2.454000000
H    -4.932000000     8.331000000    -3.557000000
O    -4.391000000     6.839000000    -6.088000000
H    -4.374000000     7.046000000    -5.153000000
H    -3.854000000     6.051000000    -6.168000000
O     0.060000000     5.495000000    -8.046000000
H    -0.626000000     6.040000000    -8.432000000
H    -0.143000000     5.482000000    -7.110000000
O    -0.455000000     8.801000000    -3.014000000
H    -0.335000000     9.455000000    -2.325000000
H    -0.712000000     8.006000000    -2.548000000
O    -2.412000000     7.613000000     1.206000000
H    -2.862000000     8.017000000     1.949000000
H    -1.825000000     6.970000000     1.603000000
O     2.419000000     8.161000000    -2.539000000
H     2.138000000     8.039000000    -1.632000000
H     1.937000000     8.932000000    -2.838000000
O    -0.597000000     5.804000000    -5.363000000
H     0.075000000     5.628000000    -4.705000000
H    -1.400000000     5.441000000    -4.989000000
O    -4.595000000     7.129000000    -0.645000000
H    -4.437000000     6.198000000    -0.802000000
H    -3.859000000     7.408000000    -0.099000000
O    -2.196000000     7.110000000     3.934000000
H    -2.860000000     7.445000000     4.536000000
H    -1.545000000     6.697000000     4.501000000
O     0.361000000    10.177000000    -0.380000000
H    -0.416000000    10.449000000     0.109000000
H     0.506000000     9.269000000    -0.111000000
O    -1.430000000     8.532000000    -5.516000000
H    -1.324000000     8.912000000    -4.644000000
H    -1.087000000     7.642000000    -5.432000000
O    -6.887000000     4.026000000    -1.425000000
H    -6.799000000     4.356000000    -2.319000000
H    -6.073000000     4.283000000    -0.993000000
O     1.083000000     5.474000000    -3.383000000
H     1.007000000     5.097000000    -2.506000000
H     1.593000000     6.273000000    -3.257000000
