215
-1447.91993
C     2.550000000     2.999000000     3.877000000
H     3.545000000     2.675000000     3.581000000
C     1.576000000     2.074000000     4.239000000
C     0.284000000     2.553000000     4.697000000
H    -0.421000000     1.760000000     4.931000000
C     1.704000000     0.604000000     3.894000000
O     3.132000000     0.318000000     3.869000000
H     1.255000000     0.393000000     2.913000000
O     0.910000000    -0.253000000     4.840000000
C     0.248000000    -1.406000000     4.342000000
C    -1.106000000    -1.332000000     4.175000000
H    -1.687000000    -0.432000000     4.360000000
C    -1.846000000    -2.400000000     3.640000000
O    -3.136000000    -2.207000000     3.266000000
C    -1.091000000    -3.591000000     3.256000000
C    -1.759000000    -4.811000000     2.655000000
H    -1.209000000    -5.690000000     2.997000000
C    -1.750000000    -4.590000000     1.162000000
C    -0.656000000    -5.060000000     0.405000000
H     0.043000000    -5.663000000     0.978000000
H    -2.790000000    -4.978000000     2.975000000
C     0.309000000    -3.615000000     3.426000000
H     0.862000000    -4.542000000     3.292000000
C     1.007000000    -2.500000000     3.929000000
C     2.523000000    -2.509000000     4.165000000
H     2.832000000    -3.547000000     4.301000000
H     2.845000000    -1.979000000     5.064000000
C     3.419000000    -1.910000000     3.019000000
C     3.921000000    -2.768000000     2.041000000
H     3.631000000    -3.816000000     2.065000000
C     3.625000000    -0.564000000     2.898000000
C     4.237000000    -0.035000000     1.783000000
H     4.370000000     1.036000000     1.655000000
C     4.641000000    -0.914000000     0.809000000
O     5.175000000    -0.307000000    -0.311000000
C     4.284000000    -0.170000000    -1.389000000
C     4.303000000     1.264000000    -1.999000000
C     3.971000000     1.396000000    -3.259000000
H     3.709000000     0.505000000    -3.825000000
C     4.389000000     2.412000000    -1.170000000
H     4.492000000     2.187000000    -0.112000000
O     4.473000000    -1.171000000    -2.442000000
H     3.287000000    -0.395000000    -0.984000000
C     4.503000000    -2.257000000     0.890000000
C     4.896000000    -3.143000000    -0.292000000
H     5.102000000    -4.144000000     0.093000000
H     5.785000000    -2.694000000    -0.739000000
C     3.720000000    -3.164000000    -1.245000000
C     2.717000000    -4.045000000    -1.074000000
H     2.916000000    -4.824000000    -0.343000000
C     3.632000000    -2.252000000    -2.310000000
C     2.528000000    -2.270000000    -3.177000000
H     2.424000000    -1.532000000    -3.968000000
C     1.582000000    -3.256000000    -3.010000000
O     0.414000000    -3.070000000    -3.775000000
C    -0.711000000    -2.437000000    -3.157000000
C    -1.476000000    -1.553000000    -4.117000000
C    -0.919000000    -0.261000000    -4.461000000
H     0.071000000    -0.041000000    -4.069000000
C    -2.862000000    -1.671000000    -4.188000000
H    -3.496000000    -2.499000000    -3.881000000
O    -1.577000000    -3.488000000    -2.868000000
H    -0.481000000    -1.778000000    -2.306000000
C     1.544000000    -4.071000000    -1.890000000
C     0.563000000    -5.241000000    -1.799000000
H     1.080000000    -6.050000000    -1.278000000
H     0.207000000    -5.624000000    -2.757000000
C    -0.594000000    -4.681000000    -0.930000000
C    -1.634000000    -3.972000000    -1.579000000
C    -2.683000000    -3.442000000    -0.828000000
H    -3.363000000    -2.696000000    -1.230000000
C    -2.703000000    -3.786000000     0.548000000
O    -3.676000000    -3.097000000     1.207000000
C    -3.314000000    -1.879000000     1.924000000
H    -2.323000000    -1.672000000     1.494000000
C    -4.229000000    -0.684000000     1.582000000
C    -4.052000000     0.545000000     2.262000000
H    -3.350000000     0.667000000     3.083000000
C    -5.131000000    -0.718000000     0.535000000
H    -5.116000000    -1.660000000    -0.007000000
C    -5.941000000     0.335000000     0.267000000
O    -6.977000000     0.233000000    -0.699000000
C    -5.857000000     1.482000000     1.032000000
H    -6.562000000     2.296000000     0.883000000
C    -4.870000000     1.661000000     1.947000000
O    -4.778000000     2.852000000     2.628000000
C    -4.158000000     2.929000000     3.865000000
C    -2.892000000     3.383000000     3.968000000
H    -2.258000000     3.370000000     3.086000000
C    -5.011000000     2.862000000     5.043000000
H    -6.019000000     2.465000000     4.953000000
C    -4.485000000     3.186000000     6.275000000
H    -5.040000000     3.038000000     7.198000000
C    -3.234000000     3.741000000     6.369000000
H    -2.795000000     3.926000000     7.346000000
C    -2.413000000     3.784000000     5.257000000
O    -1.113000000     4.271000000     5.463000000
C     0.069000000     3.904000000     4.892000000
C     1.119000000     4.834000000     4.482000000
H     0.947000000     5.893000000     4.660000000
C     2.289000000     4.342000000     3.966000000
O     3.293000000     5.302000000     3.553000000
C     4.206000000     5.034000000     2.575000000
C     3.747000000     4.918000000     1.252000000
H     2.695000000     5.107000000     1.050000000
C     5.599000000     4.872000000     2.773000000
H     5.901000000     4.914000000     3.816000000
C     6.531000000     4.631000000     1.767000000
H     7.573000000     4.458000000     2.023000000
C     6.092000000     4.538000000     0.483000000
H     6.806000000     4.450000000    -0.332000000
C     4.715000000     4.723000000     0.259000000
O     4.295000000     4.839000000    -0.998000000
C     4.151000000     3.656000000    -1.716000000
C     3.889000000     3.841000000    -3.064000000
H     4.027000000     4.789000000    -3.577000000
C     3.796000000     2.640000000    -3.833000000
O     3.641000000     2.647000000    -5.190000000
C     2.506000000     2.357000000    -5.913000000
C     1.265000000     2.239000000    -5.294000000
H     1.254000000     2.406000000    -4.220000000
C     2.598000000     2.262000000    -7.258000000
H     3.557000000     2.354000000    -7.762000000
C     1.497000000     1.904000000    -8.045000000
H     1.558000000     1.787000000    -9.124000000
C     0.258000000     1.700000000    -7.463000000
H    -0.600000000     1.449000000    -8.080000000
C     0.158000000     1.881000000    -6.063000000
O    -1.044000000     1.837000000    -5.470000000
C    -1.718000000     0.772000000    -5.009000000
C    -3.058000000     0.590000000    -5.107000000
H    -3.670000000     1.425000000    -5.436000000
C    -3.653000000    -0.557000000    -4.661000000
O    -5.036000000    -0.640000000    -4.953000000
C    -5.978000000    -0.960000000    -3.997000000
C    -6.902000000    -1.989000000    -4.171000000
H    -6.955000000    -2.430000000    -5.163000000
C    -7.816000000    -2.334000000    -3.164000000
H    -8.540000000    -3.144000000    -3.203000000
C    -7.724000000    -1.709000000    -1.963000000
H    -8.360000000    -1.984000000    -1.126000000
C    -6.911000000    -0.599000000    -1.823000000
C    -6.081000000    -0.186000000    -2.844000000
H    -5.611000000     0.789000000    -2.746000000
C    -1.746000000     1.479000000    -1.090000000
H    -2.662000000     1.819000000    -1.567000000
C    -1.380000000     0.107000000    -0.945000000
H    -2.088000000    -0.636000000    -1.303000000
C    -0.238000000    -0.235000000    -0.246000000
H     0.114000000    -1.304000000    -0.160000000
C     0.674000000     0.792000000     0.140000000
H     1.609000000     0.494000000     0.608000000
C     0.415000000     2.116000000    -0.148000000
H     1.071000000     2.920000000     0.176000000
C    -0.805000000     2.459000000    -0.760000000
C    -1.106000000     3.930000000    -0.982000000
O    -0.327000000     4.859000000    -0.680000000
O    -2.150000000     4.134000000    -1.520000000
O    -1.657000000     6.741000000    -2.502000000
H    -1.529000000     6.262000000    -1.683000000
H    -2.037000000     6.097000000    -3.100000000
O    -4.433000000     5.154000000    -0.093000000
H    -3.671000000     4.822000000    -0.568000000
H    -4.099000000     5.361000000     0.780000000
O    -0.808000000     5.655000000     1.843000000
H    -0.495000000     5.033000000     1.185000000
H    -1.234000000     6.346000000     1.335000000
O    -2.856000000     4.727000000    -4.065000000
H    -2.829000000     4.266000000    -3.227000000
H    -3.767000000     5.004000000    -4.158000000
O    -3.226000000     3.883000000    -6.805000000
H    -2.677000000     3.725000000    -6.037000000
H    -2.645000000     4.317000000    -7.430000000
O     0.958000000     7.368000000    -0.601000000
H     0.600000000     6.493000000    -0.754000000
H     1.076000000     7.416000000     0.348000000
O    -1.976000000     9.301000000    -3.330000000
H    -1.253000000     9.611000000    -2.784000000
H    -1.854000000     8.352000000    -3.371000000
O    -4.901000000     8.289000000     1.294000000
H    -4.524000000     8.868000000     0.631000000
H    -4.161000000     8.053000000     1.854000000
O     3.550000000     7.626000000    -1.516000000
H     2.719000000     7.502000000    -1.059000000
H     3.441000000     8.448000000    -1.994000000
O     1.575000000     7.793000000    -4.359000000
H     0.867000000     8.274000000    -3.931000000
H     1.650000000     6.981000000    -3.857000000
O    -0.539000000     5.505000000    -5.140000000
H     0.180000000     5.322000000    -4.535000000
H    -1.310000000     5.127000000    -4.715000000
O    -5.381000000     5.866000000    -3.347000000
H    -5.465000000     6.784000000    -3.089000000
H    -5.795000000     5.820000000    -4.209000000
O    -5.636000000     7.599000000    -1.144000000
H    -5.416000000     6.691000000    -0.936000000
H    -5.556000000     8.062000000    -0.311000000
O    -3.385000000     6.755000000     3.461000000
H    -2.751000000     6.238000000     2.963000000
H    -3.526000000     6.254000000     4.264000000
O    -2.113000000     7.329000000     0.437000000
H    -2.214000000     7.992000000     1.120000000
H    -2.276000000     7.801000000    -0.380000000
O     3.314000000     5.874000000    -5.881000000
H     2.729000000     6.444000000    -5.381000000
H     2.726000000     5.304000000    -6.376000000
O     0.175000000     9.666000000    -1.650000000
H     0.199000000    10.389000000    -1.023000000
H     0.562000000     8.928000000    -1.179000000
O    -6.466000000     4.003000000    -1.675000000
H    -5.975000000     4.545000000    -2.292000000
H    -5.981000000     4.075000000    -0.853000000
O     1.223000000     5.382000000    -2.877000000
H     0.465000000     5.312000000    -2.297000000
H     1.952000000     5.037000000    -2.362000000
