215
-1463.59390
C     1.093000000     4.460000000     3.361000000
H     2.175000000     4.499000000     3.460000000
C     0.364000000     3.346000000     3.776000000
C    -1.031000000     3.474000000     3.924000000
H    -1.630000000     2.689000000     4.379000000
C     0.980000000     1.976000000     3.991000000
O     2.435000000     1.981000000     4.114000000
H     0.912000000     1.402000000     3.055000000
O     0.329000000     1.150000000     5.052000000
C     0.041000000    -0.132000000     4.640000000
C    -1.213000000    -0.381000000     4.173000000
H    -2.046000000     0.309000000     4.284000000
C    -1.483000000    -1.637000000     3.750000000
O    -2.747000000    -2.015000000     3.385000000
C    -0.492000000    -2.670000000     3.731000000
C    -0.816000000    -4.028000000     3.389000000
H    -0.204000000    -4.822000000     3.822000000
C    -0.819000000    -4.334000000     1.904000000
C     0.333000000    -4.831000000     1.320000000
H     1.173000000    -5.140000000     1.936000000
H    -1.837000000    -4.158000000     3.752000000
C     0.818000000    -2.352000000     4.168000000
H     1.467000000    -3.215000000     4.293000000
C     1.065000000    -1.071000000     4.667000000
C     2.440000000    -0.668000000     5.089000000
H     2.936000000    -1.540000000     5.521000000
H     2.504000000     0.086000000     5.877000000
C     3.181000000    -0.256000000     3.790000000
C     3.785000000    -1.142000000     2.894000000
H     3.938000000    -2.180000000     3.179000000
C     3.101000000     1.045000000     3.430000000
C     3.577000000     1.499000000     2.236000000
H     3.538000000     2.527000000     1.885000000
C     4.285000000     0.669000000     1.359000000
O     4.589000000     1.144000000     0.088000000
C     3.806000000     0.649000000    -1.065000000
C     3.487000000     1.732000000    -2.028000000
C     3.482000000     1.509000000    -3.418000000
H     3.766000000     0.527000000    -3.786000000
C     3.130000000     2.981000000    -1.555000000
H     3.255000000     3.195000000    -0.497000000
O     4.544000000    -0.361000000    -1.818000000
H     2.880000000     0.172000000    -0.711000000
C     4.309000000    -0.676000000     1.697000000
C     5.117000000    -1.639000000     0.811000000
H     5.438000000    -2.446000000     1.473000000
H     5.968000000    -1.137000000     0.346000000
C     4.215000000    -2.221000000    -0.266000000
C     3.427000000    -3.379000000     0.015000000
H     3.452000000    -3.914000000     0.961000000
C     4.170000000    -1.694000000    -1.561000000
C     3.347000000    -2.287000000    -2.522000000
H     3.291000000    -1.841000000    -3.512000000
C     2.639000000    -3.459000000    -2.237000000
O     1.559000000    -3.758000000    -3.092000000
C     0.239000000    -3.368000000    -2.708000000
C    -0.467000000    -2.597000000    -3.872000000
C     0.235000000    -2.093000000    -4.979000000
H     1.315000000    -2.218000000    -4.983000000
C    -1.823000000    -2.372000000    -3.831000000
H    -2.381000000    -2.597000000    -2.926000000
O    -0.531000000    -4.482000000    -2.219000000
H     0.404000000    -2.634000000    -1.906000000
C     2.672000000    -4.046000000    -0.995000000
C     1.850000000    -5.248000000    -0.664000000
H     2.419000000    -5.911000000    -0.009000000
H     1.698000000    -5.815000000    -1.586000000
C     0.479000000    -5.020000000    -0.057000000
C    -0.638000000    -4.715000000    -0.854000000
C    -1.820000000    -4.289000000    -0.277000000
H    -2.691000000    -4.086000000    -0.895000000
C    -1.932000000    -4.136000000     1.092000000
O    -3.054000000    -3.475000000     1.604000000
C    -3.039000000    -2.090000000     2.003000000
H    -2.211000000    -1.580000000     1.488000000
C    -4.304000000    -1.331000000     1.521000000
C    -4.607000000    -0.121000000     2.146000000
H    -3.980000000     0.257000000     2.949000000
C    -5.010000000    -1.798000000     0.445000000
H    -4.697000000    -2.723000000    -0.032000000
C    -6.216000000    -1.217000000     0.122000000
O    -6.932000000    -1.431000000    -0.978000000
C    -6.584000000    -0.027000000     0.827000000
H    -7.452000000     0.519000000     0.465000000
C    -5.809000000     0.509000000     1.841000000
O    -6.294000000     1.613000000     2.560000000
C    -5.634000000     2.273000000     3.582000000
C    -4.679000000     3.199000000     3.223000000
H    -4.645000000     3.510000000     2.182000000
C    -5.905000000     2.020000000     4.912000000
H    -6.631000000     1.285000000     5.249000000
C    -5.175000000     2.773000000     5.852000000
H    -5.350000000     2.549000000     6.901000000
C    -4.257000000     3.771000000     5.467000000
H    -3.810000000     4.365000000     6.260000000
C    -3.952000000     3.913000000     4.146000000
O    -3.043000000     4.880000000     3.733000000
C    -1.668000000     4.692000000     3.537000000
C    -0.912000000     5.688000000     2.992000000
H    -1.478000000     6.576000000     2.725000000
C     0.488000000     5.620000000     2.955000000
O     1.263000000     6.723000000     2.547000000
C     2.190000000     6.511000000     1.600000000
C     1.848000000     5.838000000     0.421000000
H     0.850000000     5.492000000     0.166000000
C     3.548000000     6.839000000     1.881000000
H     3.698000000     7.433000000     2.778000000
C     4.531000000     6.500000000     0.973000000
H     5.558000000     6.827000000     1.113000000
C     4.177000000     5.990000000    -0.305000000
H     4.886000000     5.901000000    -1.124000000
C     2.843000000     5.637000000    -0.540000000
O     2.505000000     5.249000000    -1.807000000
C     2.704000000     4.014000000    -2.346000000
C     2.768000000     3.871000000    -3.739000000
H     2.362000000     4.547000000    -4.487000000
C     3.213000000     2.635000000    -4.254000000
O     3.226000000     2.537000000    -5.638000000
C     2.975000000     1.338000000    -6.233000000
C     1.708000000     0.778000000    -6.292000000
H     0.836000000     1.226000000    -5.822000000
C     3.977000000     0.677000000    -6.997000000
H     4.966000000     1.115000000    -7.108000000
C     3.825000000    -0.519000000    -7.731000000
H     4.615000000    -0.980000000    -8.318000000
C     2.564000000    -1.053000000    -7.735000000
H     2.401000000    -1.949000000    -8.327000000
C     1.540000000    -0.410000000    -7.023000000
O     0.276000000    -0.963000000    -7.097000000
C    -0.414000000    -1.399000000    -6.010000000
C    -1.816000000    -1.195000000    -6.009000000
H    -2.224000000    -0.654000000    -6.860000000
C    -2.535000000    -1.712000000    -4.873000000
O    -3.936000000    -1.560000000    -4.826000000
C    -4.741000000    -2.228000000    -3.974000000
C    -4.698000000    -3.624000000    -3.917000000
H    -4.097000000    -4.222000000    -4.598000000
C    -5.488000000    -4.278000000    -2.951000000
H    -5.544000000    -5.363000000    -2.969000000
C    -6.251000000    -3.581000000    -2.025000000
H    -6.895000000    -4.051000000    -1.286000000
C    -6.283000000    -2.159000000    -2.093000000
C    -5.526000000    -1.530000000    -3.049000000
H    -5.580000000    -0.444000000    -3.053000000
C    -1.334000000     0.223000000    -1.289000000
H    -2.094000000     0.183000000    -2.065000000
C    -1.063000000    -0.925000000    -0.608000000
H    -1.622000000    -1.850000000    -0.731000000
C    -0.104000000    -0.993000000     0.378000000
H     0.111000000    -1.850000000     0.920000000
C     0.651000000     0.159000000     0.579000000
H     1.466000000     0.160000000     1.298000000
C     0.454000000     1.385000000    -0.117000000
H     0.998000000     2.310000000     0.059000000
C    -0.645000000     1.435000000    -1.004000000
C    -1.128000000     2.724000000    -1.725000000
O    -0.853000000     3.806000000    -1.184000000
O    -1.960000000     2.745000000    -2.592000000
O    -4.423000000     5.350000000    -6.046000000
H    -4.081000000     4.960000000    -5.241000000
H    -3.955000000     6.181000000    -6.127000000
O    -4.545000000     3.053000000    -0.517000000
H    -3.765000000     2.732000000    -0.969000000
H    -4.295000000     3.919000000    -0.193000000
O    -3.164000000     1.481000000    -4.795000000
H    -3.104000000     0.526000000    -4.837000000
H    -2.660000000     1.719000000    -4.018000000
O    -4.488000000     8.317000000    -0.376000000
H    -5.050000000     8.025000000    -1.094000000
H    -4.908000000     7.972000000     0.412000000
O    -2.084000000     3.420000000    -6.681000000
H    -2.754000000     2.860000000    -6.289000000
H    -1.460000000     3.578000000    -5.973000000
O    -0.676000000     6.300000000    -1.706000000
H    -0.918000000     5.378000000    -1.789000000
H     0.137000000     6.381000000    -2.205000000
O     1.126000000     6.768000000    -4.026000000
H     1.135000000     7.512000000    -4.628000000
H     2.032000000     6.691000000    -3.727000000
O    -2.707000000     7.620000000    -4.858000000
H    -2.671000000     7.867000000    -3.934000000
H    -2.144000000     6.848000000    -4.921000000
O    -4.498000000     7.223000000     2.840000000
H    -4.098000000     6.365000000     2.982000000
H    -5.328000000     7.031000000     2.402000000
O    -3.063000000     5.279000000    -0.210000000
H    -2.649000000     6.141000000    -0.256000000
H    -2.375000000     4.668000000    -0.474000000
O    -5.859000000     2.645000000    -4.496000000
H    -4.941000000     2.403000000    -4.623000000
H    -5.834000000     3.577000000    -4.280000000
O    -3.568000000     4.709000000    -3.553000000
H    -3.521000000     5.317000000    -2.815000000
H    -3.012000000     3.975000000    -3.294000000
O    -1.176000000     5.751000000    -7.901000000
H    -1.470000000     4.941000000    -7.484000000
H    -0.911000000     5.485000000    -8.781000000
O    -2.264000000     1.899000000    -9.166000000
H    -2.824000000     2.570000000    -9.556000000
H    -2.155000000     2.177000000    -8.256000000
O    -7.012000000     0.324000000    -5.706000000
H    -6.526000000     0.764000000    -5.008000000
H    -7.612000000    -0.263000000    -5.247000000
O    -6.720000000     6.897000000    -2.353000000
H    -7.542000000     7.344000000    -2.555000000
H    -6.835000000     6.014000000    -2.703000000
O    -6.733000000     2.049000000    -1.740000000
H    -6.852000000     2.718000000    -2.414000000
H    -5.916000000     2.291000000    -1.303000000
O    -2.326000000     8.485000000    -2.302000000
H    -2.891000000     8.723000000    -1.567000000
H    -1.849000000     7.713000000    -1.997000000
O    -0.273000000     3.825000000    -4.337000000
H    -0.852000000     3.489000000    -3.653000000
H     0.323000000     4.417000000    -3.878000000
