215
-1440.65092
C     2.433000000     3.231000000     4.029000000
H     3.437000000     2.869000000     3.824000000
C     1.334000000     2.325000000     4.198000000
C     0.066000000     2.821000000     4.437000000
H    -0.817000000     2.190000000     4.493000000
C     1.569000000     0.871000000     3.984000000
O     2.910000000     0.470000000     4.190000000
H     1.302000000     0.702000000     2.930000000
O     0.787000000     0.045000000     4.865000000
C     0.172000000    -1.098000000     4.416000000
C    -1.184000000    -0.960000000     4.030000000
H    -1.634000000     0.006000000     4.243000000
C    -1.818000000    -2.063000000     3.541000000
O    -3.097000000    -1.838000000     2.999000000
C    -1.162000000    -3.343000000     3.396000000
C    -1.845000000    -4.514000000     2.698000000
H    -1.513000000    -5.498000000     3.034000000
C    -1.784000000    -4.361000000     1.204000000
C    -0.850000000    -5.069000000     0.460000000
H    -0.085000000    -5.691000000     0.918000000
H    -2.879000000    -4.525000000     3.048000000
C     0.220000000    -3.287000000     3.717000000
H     0.688000000    -4.144000000     3.239000000
C     0.850000000    -2.261000000     4.348000000
C     2.383000000    -2.405000000     4.554000000
H     2.663000000    -3.458000000     4.638000000
H     2.728000000    -1.990000000     5.503000000
C     3.221000000    -1.802000000     3.400000000
C     3.736000000    -2.654000000     2.338000000
H     3.528000000    -3.720000000     2.396000000
C     3.398000000    -0.424000000     3.258000000
C     4.215000000     0.058000000     2.264000000
H     4.486000000     1.111000000     2.235000000
C     4.592000000    -0.756000000     1.160000000
O     4.991000000    -0.093000000     0.001000000
C     4.134000000    -0.031000000    -1.171000000
C     4.132000000     1.373000000    -1.940000000
C     4.084000000     1.384000000    -3.318000000
H     4.227000000     0.428000000    -3.816000000
C     4.108000000     2.553000000    -1.201000000
H     4.020000000     2.582000000    -0.119000000
O     4.486000000    -1.143000000    -2.016000000
H     3.128000000    -0.185000000    -0.753000000
C     4.297000000    -2.097000000     1.199000000
C     4.697000000    -3.095000000     0.094000000
H     4.817000000    -4.101000000     0.501000000
H     5.631000000    -2.934000000    -0.449000000
C     3.609000000    -3.200000000    -1.003000000
C     2.553000000    -4.184000000    -0.938000000
H     2.636000000    -4.936000000    -0.157000000
C     3.545000000    -2.178000000    -1.962000000
C     2.494000000    -2.166000000    -2.851000000
H     2.431000000    -1.355000000    -3.572000000
C     1.454000000    -3.075000000    -2.772000000
O     0.480000000    -2.956000000    -3.684000000
C    -0.831000000    -2.547000000    -3.275000000
C    -1.480000000    -1.657000000    -4.274000000
C    -0.749000000    -0.701000000    -4.961000000
H     0.332000000    -0.811000000    -5.005000000
C    -2.927000000    -1.574000000    -4.389000000
H    -3.646000000    -2.192000000    -3.858000000
O    -1.661000000    -3.756000000    -2.928000000
H    -0.753000000    -2.035000000    -2.305000000
C     1.504000000    -4.096000000    -1.830000000
C     0.432000000    -5.251000000    -1.749000000
H     0.866000000    -6.183000000    -1.381000000
H     0.034000000    -5.540000000    -2.724000000
C    -0.812000000    -4.765000000    -0.914000000
C    -1.768000000    -3.974000000    -1.567000000
C    -2.834000000    -3.471000000    -0.866000000
H    -3.544000000    -2.841000000    -1.396000000
C    -2.800000000    -3.628000000     0.532000000
O    -3.726000000    -2.815000000     1.138000000
C    -3.277000000    -1.566000000     1.624000000
H    -2.302000000    -1.263000000     1.216000000
C    -4.361000000    -0.475000000     1.459000000
C    -4.419000000     0.658000000     2.302000000
H    -3.646000000     0.767000000     3.058000000
C    -5.230000000    -0.569000000     0.441000000
H    -5.021000000    -1.311000000    -0.325000000
C    -6.296000000     0.318000000     0.272000000
O    -7.230000000     0.125000000    -0.734000000
C    -6.405000000     1.416000000     1.200000000
H    -7.225000000     2.103000000     1.005000000
C    -5.447000000     1.627000000     2.212000000
O    -5.581000000     2.735000000     3.137000000
C    -4.659000000     2.961000000     4.097000000
C    -3.452000000     3.665000000     3.846000000
H    -3.340000000     4.187000000     2.899000000
C    -4.897000000     2.421000000     5.392000000
H    -5.799000000     1.838000000     5.557000000
C    -3.974000000     2.596000000     6.346000000
H    -4.138000000     2.153000000     7.325000000
C    -2.782000000     3.344000000     6.137000000
H    -1.973000000     3.427000000     6.857000000
C    -2.526000000     3.907000000     4.858000000
O    -1.472000000     4.665000000     4.621000000
C    -0.168000000     4.178000000     4.397000000
C     0.888000000     5.054000000     4.099000000
H     0.718000000     6.125000000     4.025000000
C     2.204000000     4.593000000     3.912000000
O     3.182000000     5.423000000     3.569000000
C     4.089000000     5.103000000     2.548000000
C     3.640000000     5.205000000     1.222000000
H     2.595000000     5.384000000     0.981000000
C     5.454000000     4.986000000     2.804000000
H     5.714000000     4.901000000     3.856000000
C     6.406000000     4.870000000     1.796000000
H     7.430000000     4.610000000     2.052000000
C     5.960000000     4.860000000     0.528000000
H     6.759000000     4.793000000    -0.206000000
C     4.627000000     5.047000000     0.248000000
O     4.198000000     4.968000000    -1.048000000
C     4.120000000     3.754000000    -1.818000000
C     3.988000000     3.849000000    -3.191000000
H     4.167000000     4.842000000    -3.595000000
C     3.990000000     2.664000000    -3.996000000
O     4.034000000     2.699000000    -5.396000000
C     3.053000000     1.943000000    -6.109000000
C     1.759000000     1.950000000    -5.638000000
H     1.440000000     2.561000000    -4.798000000
C     3.402000000     1.281000000    -7.311000000
H     4.394000000     1.411000000    -7.736000000
C     2.412000000     0.613000000    -8.057000000
H     2.671000000     0.056000000    -8.954000000
C     1.108000000     0.662000000    -7.613000000
H     0.330000000     0.180000000    -8.200000000
C     0.798000000     1.267000000    -6.426000000
O    -0.535000000     1.400000000    -6.015000000
C    -1.356000000     0.402000000    -5.546000000
C    -2.780000000     0.482000000    -5.576000000
H    -3.170000000     1.343000000    -6.113000000
C    -3.537000000    -0.495000000    -4.982000000
O    -4.918000000    -0.391000000    -4.937000000
C    -5.734000000    -0.900000000    -3.933000000
C    -6.256000000    -2.173000000    -4.095000000
H    -6.022000000    -2.744000000    -4.989000000
C    -7.175000000    -2.606000000    -3.120000000
H    -7.584000000    -3.606000000    -3.235000000
C    -7.564000000    -1.815000000    -2.026000000
H    -8.323000000    -2.203000000    -1.351000000
C    -6.993000000    -0.582000000    -1.859000000
C    -6.054000000    -0.133000000    -2.739000000
H    -5.528000000     0.809000000    -2.609000000
C    -2.105000000     1.428000000    -0.665000000
H    -3.088000000     1.212000000    -1.077000000
C    -1.071000000     0.421000000    -0.779000000
H    -1.230000000    -0.532000000    -1.276000000
C     0.101000000     0.650000000    -0.115000000
H     0.893000000    -0.093000000    -0.161000000
C     0.302000000     1.816000000     0.654000000
H     1.188000000     1.872000000     1.281000000
C    -0.722000000     2.774000000     0.845000000
H    -0.539000000     3.612000000     1.513000000
C    -1.957000000     2.583000000     0.181000000
C    -3.151000000     3.564000000     0.274000000
O    -2.907000000     4.646000000     0.701000000
O    -4.124000000     3.444000000    -0.489000000
O    -3.012000000     5.724000000    -2.021000000
H    -3.302000000     4.977000000    -1.497000000
H    -3.729000000     5.878000000    -2.635000000
O    -6.596000000     4.323000000    -0.209000000
H    -5.734000000     3.920000000    -0.106000000
H    -6.516000000     4.863000000    -0.995000000
O    -4.223000000     6.491000000     1.992000000
H    -3.843000000     5.864000000     1.377000000
H    -3.630000000     7.242000000     1.965000000
O    -1.811000000     3.911000000    -4.393000000
H    -2.072000000     3.826000000    -3.476000000
H    -1.078000000     3.303000000    -4.491000000
O    -1.012000000     6.242000000     1.809000000
H    -1.712000000     5.615000000     1.626000000
H    -1.205000000     6.566000000     2.689000000
O    -8.935000000     4.423000000    -1.982000000
H    -8.834000000     3.697000000    -2.597000000
H    -8.478000000     4.133000000    -1.192000000
O    -3.543000000     7.594000000     5.049000000
H    -3.216000000     6.931000000     4.441000000
H    -4.316000000     7.194000000     5.447000000
O     0.668000000     7.294000000    -0.063000000
H     0.053000000     6.878000000     0.541000000
H     1.096000000     7.972000000     0.460000000
O    -1.454000000     7.860000000    -1.553000000
H    -1.926000000     7.028000000    -1.578000000
H    -0.531000000     7.610000000    -1.509000000
O    -1.260000000     6.600000000    -4.372000000
H    -1.759000000     6.827000000    -3.587000000
H    -1.509000000     5.695000000    -4.561000000
O    -5.096000000     5.653000000    -4.223000000
H    -5.349000000     6.573000000    -4.300000000
H    -5.414000000     5.248000000    -5.030000000
O    -5.379000000     8.571000000     0.409000000
H    -4.613000000     8.794000000     0.939000000
H    -5.452000000     7.619000000     0.484000000
O    -4.066000000     8.676000000    -2.145000000
H    -4.561000000     8.691000000    -1.326000000
H    -3.154000000     8.581000000    -1.871000000
O    -7.573000000     3.197000000    -4.254000000
H    -6.792000000     2.952000000    -3.758000000
H    -7.656000000     2.516000000    -4.923000000
O    -2.618000000     8.645000000     1.197000000
H    -2.001000000     8.029000000     0.802000000
H    -2.278000000     9.508000000     0.963000000
O    -5.733000000    -1.556000000     4.141000000
H    -5.299000000    -1.130000000     3.402000000
H    -5.286000000    -1.209000000     4.913000000
O    -4.819000000     3.053000000    -3.312000000
H    -4.899000000     3.963000000    -3.599000000
H    -4.454000000     3.111000000    -2.429000000
O    -6.792000000     5.966000000     2.462000000
H    -5.904000000     6.054000000     2.116000000
H    -7.135000000     5.177000000     2.043000000
O     0.523000000     4.067000000    -1.446000000
H     1.211000000     4.381000000    -0.859000000
H    -0.152000000     3.722000000    -0.861000000
