215
-1451.93944
C    -0.064000000     4.406000000     3.098000000
H     0.971000000     4.436000000     2.769000000
C    -0.525000000     3.313000000     3.829000000
C    -1.847000000     3.184000000     4.194000000
H    -2.154000000     2.229000000     4.612000000
C     0.421000000     2.116000000     3.964000000
O     1.854000000     2.452000000     4.174000000
H     0.335000000     1.515000000     3.046000000
O     0.077000000     1.230000000     5.065000000
C     0.082000000    -0.150000000     4.777000000
C    -1.105000000    -0.725000000     4.351000000
H    -2.010000000    -0.136000000     4.477000000
C    -1.043000000    -2.022000000     3.918000000
O    -2.188000000    -2.502000000     3.393000000
C     0.140000000    -2.765000000     3.894000000
C     0.178000000    -4.196000000     3.435000000
H     0.845000000    -4.853000000     3.997000000
C     0.296000000    -4.346000000     1.898000000
C     1.551000000    -4.664000000     1.300000000
H     2.381000000    -4.727000000     1.999000000
H    -0.775000000    -4.644000000     3.724000000
C     1.323000000    -2.096000000     4.389000000
H     2.198000000    -2.740000000     4.434000000
C     1.313000000    -0.802000000     4.763000000
C     2.554000000    -0.105000000     5.166000000
H     3.276000000    -0.782000000     5.627000000
H     2.303000000     0.657000000     5.908000000
C     3.144000000     0.462000000     3.799000000
C     3.869000000    -0.329000000     2.912000000
H     3.978000000    -1.377000000     3.179000000
C     2.738000000     1.739000000     3.423000000
C     3.133000000     2.223000000     2.207000000
H     2.801000000     3.211000000     1.897000000
C     3.987000000     1.496000000     1.347000000
O     4.325000000     1.892000000     0.093000000
C     3.672000000     1.317000000    -1.048000000
C     3.254000000     2.440000000    -1.962000000
C     3.555000000     2.372000000    -3.339000000
H     4.185000000     1.578000000    -3.733000000
C     2.481000000     3.509000000    -1.472000000
H     2.216000000     3.622000000    -0.424000000
O     4.729000000     0.469000000    -1.680000000
H     2.851000000     0.728000000    -0.614000000
C     4.335000000     0.171000000     1.718000000
C     5.337000000    -0.705000000     0.944000000
H     5.869000000    -1.386000000     1.611000000
H     5.989000000     0.034000000     0.474000000
C     4.759000000    -1.441000000    -0.254000000
C     4.246000000    -2.717000000    -0.041000000
H     4.412000000    -3.203000000     0.917000000
C     4.564000000    -0.818000000    -1.511000000
C     3.857000000    -1.454000000    -2.549000000
H     3.741000000    -0.951000000    -3.506000000
C     3.327000000    -2.708000000    -2.332000000
O     2.406000000    -3.056000000    -3.190000000
C     1.034000000    -3.119000000    -2.770000000
C     0.038000000    -2.659000000    -3.822000000
C     0.492000000    -1.744000000    -4.809000000
H     1.516000000    -1.426000000    -4.985000000
C    -1.321000000    -2.936000000    -3.831000000
H    -1.767000000    -3.517000000    -3.027000000
O     0.624000000    -4.413000000    -2.265000000
H     1.062000000    -2.511000000    -1.853000000
C     3.607000000    -3.357000000    -1.125000000
C     2.970000000    -4.686000000    -0.793000000
H     3.600000000    -5.198000000    -0.064000000
H     2.846000000    -5.252000000    -1.719000000
C     1.626000000    -4.616000000    -0.101000000
C     0.461000000    -4.498000000    -0.896000000
C    -0.781000000    -4.223000000    -0.275000000
H    -1.741000000    -4.024000000    -0.744000000
C    -0.822000000    -4.172000000     1.114000000
O    -2.058000000    -3.879000000     1.649000000
C    -2.331000000    -2.539000000     2.026000000
H    -1.560000000    -1.835000000     1.680000000
C    -3.692000000    -2.203000000     1.534000000
C    -4.273000000    -1.063000000     1.971000000
H    -3.687000000    -0.359000000     2.555000000
C    -4.326000000    -2.921000000     0.533000000
H    -3.911000000    -3.813000000     0.071000000
C    -5.569000000    -2.523000000     0.090000000
O    -6.225000000    -3.145000000    -0.894000000
C    -6.178000000    -1.433000000     0.655000000
H    -7.098000000    -1.145000000     0.153000000
C    -5.467000000    -0.593000000     1.518000000
O    -6.074000000     0.623000000     1.962000000
C    -5.870000000     1.225000000     3.171000000
C    -5.217000000     2.451000000     3.114000000
H    -5.038000000     2.995000000     2.191000000
C    -6.211000000     0.648000000     4.399000000
H    -6.613000000    -0.362000000     4.394000000
C    -6.058000000     1.319000000     5.586000000
H    -6.362000000     0.862000000     6.525000000
C    -5.400000000     2.536000000     5.517000000
H    -5.223000000     3.085000000     6.439000000
C    -4.873000000     3.060000000     4.305000000
O    -4.086000000     4.211000000     4.169000000
C    -2.700000000     4.171000000     3.941000000
C    -2.225000000     5.297000000     3.325000000
H    -2.999000000     6.013000000     3.060000000
C    -0.900000000     5.464000000     2.884000000
O    -0.529000000     6.664000000     2.259000000
C     0.435000000     6.774000000     1.252000000
C     0.321000000     6.147000000    -0.005000000
H    -0.589000000     5.585000000    -0.196000000
C     1.657000000     7.437000000     1.626000000
H     1.730000000     7.834000000     2.635000000
C     2.657000000     7.559000000     0.662000000
H     3.502000000     8.189000000     0.926000000
C     2.521000000     6.909000000    -0.564000000
H     3.285000000     7.041000000    -1.325000000
C     1.404000000     6.171000000    -0.852000000
O     1.366000000     5.594000000    -2.048000000
C     2.078000000     4.513000000    -2.401000000
C     2.454000000     4.426000000    -3.721000000
H     2.103000000     5.159000000    -4.443000000
C     3.210000000     3.356000000    -4.179000000
O     3.253000000     3.150000000    -5.568000000
C     2.850000000     2.011000000    -6.232000000
C     1.577000000     1.518000000    -6.093000000
H     0.935000000     2.050000000    -5.396000000
C     3.769000000     1.368000000    -7.005000000
H     4.793000000     1.696000000    -7.161000000
C     3.400000000     0.136000000    -7.621000000
H     4.021000000    -0.378000000    -8.350000000
C     2.122000000    -0.359000000    -7.437000000
H     1.782000000    -1.302000000    -7.857000000
C     1.231000000     0.344000000    -6.643000000
O    -0.040000000    -0.184000000    -6.491000000
C    -0.414000000    -1.271000000    -5.780000000
C    -1.743000000    -1.549000000    -5.820000000
H    -2.437000000    -0.947000000    -6.400000000
C    -2.186000000    -2.418000000    -4.827000000
O    -3.525000000    -2.609000000    -4.837000000
C    -4.207000000    -3.446000000    -3.983000000
C    -3.930000000    -4.834000000    -4.017000000
H    -3.133000000    -5.165000000    -4.677000000
C    -4.510000000    -5.625000000    -3.067000000
H    -4.255000000    -6.680000000    -3.007000000
C    -5.296000000    -5.075000000    -2.064000000
H    -5.608000000    -5.678000000    -1.215000000
C    -5.519000000    -3.713000000    -1.966000000
C    -4.899000000    -2.859000000    -2.895000000
H    -5.061000000    -1.786000000    -2.847000000
C    -1.618000000     2.221000000     0.289000000
H    -2.342000000     2.637000000     0.984000000
C    -0.872000000     1.056000000     0.614000000
H    -0.955000000     0.517000000     1.554000000
C    -0.001000000     0.540000000    -0.419000000
H     0.615000000    -0.351000000    -0.182000000
C     0.101000000     1.146000000    -1.637000000
H     0.857000000     0.769000000    -2.321000000
C    -0.681000000     2.231000000    -1.982000000
H    -0.746000000     2.528000000    -3.026000000
C    -1.529000000     2.748000000    -1.003000000
C    -2.373000000     3.959000000    -1.338000000
O    -2.391000000     4.406000000    -2.446000000
O    -3.207000000     4.332000000    -0.537000000
O    -1.633000000     4.232000000    -6.539000000
H    -1.979000000     5.067000000    -6.855000000
H    -1.030000000     4.474000000    -5.836000000
O    -0.799000000     5.299000000    -4.249000000
H    -0.035000000     5.372000000    -3.677000000
H    -1.491000000     4.957000000    -3.682000000
O    -6.874000000     6.150000000    -1.977000000
H    -6.099000000     6.373000000    -1.461000000
H    -6.716000000     5.252000000    -2.269000000
O    -1.753000000     8.152000000    -2.849000000
H    -1.790000000     7.932000000    -1.918000000
H    -2.299000000     7.490000000    -3.273000000
O    -3.518000000     8.579000000     2.347000000
H    -4.370000000     8.904000000     2.639000000
H    -3.620000000     8.455000000     1.403000000
O    -7.676000000     2.419000000     0.173000000
H    -8.195000000     1.639000000     0.369000000
H    -6.862000000     2.078000000    -0.197000000
O     0.763000000     7.115000000    -5.705000000
H     0.213000000     7.894000000    -5.789000000
H     0.344000000     6.599000000    -5.015000000
O    -5.803000000     3.724000000    -2.720000000
H    -5.452000000     3.270000000    -1.954000000
H    -5.902000000     3.038000000    -3.381000000
O     0.980000000     8.853000000    -2.377000000
H     0.095000000     8.528000000    -2.543000000
H     0.970000000     9.753000000    -2.702000000
O    -3.690000000     6.362000000    -3.546000000
H    -4.643000000     6.441000000    -3.498000000
H    -3.476000000     5.667000000    -2.923000000
O    -3.809000000     6.338000000    -6.419000000
H    -3.437000000     6.530000000    -5.559000000
H    -4.752000000     6.275000000    -6.264000000
O    -7.975000000     4.661000000     1.786000000
H    -7.721000000     4.032000000     1.112000000
H    -7.225000000     5.253000000     1.856000000
O    -3.694000000     0.566000000    -2.699000000
H    -2.901000000     0.050000000    -2.551000000
H    -3.412000000     1.280000000    -3.271000000
O    -6.738000000     0.854000000    -3.651000000
H    -6.604000000     0.035000000    -4.128000000
H    -5.891000000     1.037000000    -3.246000000
O    -4.396000000     6.624000000    -0.550000000
H    -3.584000000     7.131000000    -0.527000000
H    -4.110000000     5.712000000    -0.490000000
O    -6.087000000     6.590000000     1.915000000
H    -6.056000000     7.547000000     1.928000000
H    -5.434000000     6.338000000     1.261000000
O    -3.067000000     2.596000000    -4.359000000
H    -2.700000000     2.946000000    -5.171000000
H    -2.979000000     3.311000000    -3.729000000
O    -5.020000000     2.186000000    -0.602000000
H    -4.628000000     1.391000000    -0.963000000
H    -4.276000000     2.760000000    -0.422000000
O    -2.035000000     7.954000000    -0.179000000
H    -1.925000000     7.445000000     0.625000000
H    -1.369000000     8.640000000    -0.122000000
