215
-1451.16184
C     0.578000000     4.658000000     2.710000000
H     1.500000000     4.495000000     2.158000000
C     0.086000000     3.596000000     3.463000000
C    -1.160000000     3.732000000     4.009000000
H    -1.597000000     2.836000000     4.443000000
C     0.839000000     2.301000000     3.594000000
O     2.261000000     2.503000000     3.548000000
H     0.489000000     1.680000000     2.757000000
O     0.459000000     1.574000000     4.798000000
C     0.422000000     0.202000000     4.731000000
C    -0.869000000    -0.364000000     4.533000000
H    -1.789000000     0.214000000     4.540000000
C    -0.969000000    -1.721000000     4.339000000
O    -2.222000000    -2.140000000     3.970000000
C     0.164000000    -2.477000000     4.112000000
C     0.056000000    -4.018000000     3.917000000
H     0.789000000    -4.616000000     4.463000000
C    -0.096000000    -4.359000000     2.441000000
C     1.112000000    -4.668000000     1.766000000
H     2.040000000    -4.716000000     2.330000000
H    -0.890000000    -4.205000000     4.430000000
C     1.443000000    -1.963000000     4.282000000
H     2.329000000    -2.576000000     4.424000000
C     1.566000000    -0.588000000     4.563000000
C     2.920000000     0.028000000     4.669000000
H     3.679000000    -0.640000000     5.083000000
H     2.861000000     0.873000000     5.358000000
C     3.398000000     0.498000000     3.310000000
C     4.078000000    -0.417000000     2.531000000
H     4.306000000    -1.391000000     2.957000000
C     2.990000000     1.696000000     2.802000000
C     3.460000000     2.033000000     1.575000000
H     3.254000000     3.033000000     1.202000000
C     4.266000000     1.217000000     0.825000000
O     4.570000000     1.735000000    -0.429000000
C     3.726000000     1.054000000    -1.490000000
C     3.309000000     2.167000000    -2.452000000
C     3.186000000     1.929000000    -3.804000000
H     3.513000000     0.936000000    -4.104000000
C     2.930000000     3.470000000    -2.025000000
H     2.830000000     3.647000000    -0.957000000
O     4.380000000    -0.068000000    -2.085000000
H     2.800000000     0.666000000    -1.041000000
C     4.615000000    -0.047000000     1.275000000
C     5.441000000    -1.042000000     0.457000000
H     5.976000000    -1.707000000     1.139000000
H     6.260000000    -0.502000000    -0.023000000
C     4.550000000    -1.831000000    -0.437000000
C     3.974000000    -3.049000000    -0.082000000
H     4.249000000    -3.485000000     0.875000000
C     4.072000000    -1.354000000    -1.655000000
C     3.182000000    -2.053000000    -2.500000000
H     2.872000000    -1.571000000    -3.423000000
C     2.666000000    -3.309000000    -2.129000000
O     1.697000000    -3.963000000    -2.862000000
C     0.355000000    -3.687000000    -2.404000000
C    -0.515000000    -3.292000000    -3.559000000
C    -0.060000000    -2.276000000    -4.462000000
H     0.965000000    -1.915000000    -4.449000000
C    -1.796000000    -3.703000000    -3.618000000
H    -2.166000000    -4.505000000    -2.984000000
O    -0.045000000    -4.867000000    -1.714000000
H     0.386000000    -2.863000000    -1.677000000
C     3.137000000    -3.810000000    -0.916000000
C     2.496000000    -5.112000000    -0.313000000
H     3.224000000    -5.576000000     0.356000000
H     2.389000000    -5.875000000    -1.087000000
C     1.173000000    -4.860000000     0.391000000
C    -0.035000000    -4.811000000    -0.348000000
C    -1.227000000    -4.597000000     0.342000000
H    -2.143000000    -4.441000000    -0.221000000
C    -1.255000000    -4.361000000     1.693000000
O    -2.467000000    -3.855000000     2.176000000
C    -2.532000000    -2.431000000     2.583000000
H    -1.779000000    -1.854000000     2.028000000
C    -3.798000000    -1.717000000     1.976000000
C    -4.045000000    -0.386000000     2.348000000
H    -3.625000000     0.098000000     3.226000000
C    -4.391000000    -2.210000000     0.820000000
H    -4.084000000    -3.183000000     0.447000000
C    -5.359000000    -1.473000000     0.147000000
O    -6.160000000    -1.977000000    -0.829000000
C    -5.729000000    -0.212000000     0.661000000
H    -6.608000000     0.265000000     0.234000000
C    -5.040000000     0.360000000     1.683000000
O    -5.485000000     1.637000000     1.997000000
C    -5.130000000     2.222000000     3.189000000
C    -4.232000000     3.247000000     3.259000000
H    -3.576000000     3.471000000     2.422000000
C    -5.811000000     1.881000000     4.384000000
H    -6.454000000     1.005000000     4.423000000
C    -5.589000000     2.580000000     5.575000000
H    -6.001000000     2.165000000     6.492000000
C    -4.780000000     3.656000000     5.568000000
H    -4.736000000     4.389000000     6.370000000
C    -4.035000000     3.905000000     4.469000000
O    -3.152000000     4.953000000     4.452000000
C    -1.897000000     4.833000000     3.929000000
C    -1.375000000     5.966000000     3.266000000
H    -2.013000000     6.837000000     3.139000000
C    -0.143000000     5.838000000     2.568000000
O     0.526000000     7.014000000     2.093000000
C     1.278000000     6.997000000     0.891000000
C     1.021000000     6.285000000    -0.263000000
H     0.079000000     5.757000000    -0.390000000
C     2.470000000     7.679000000     0.949000000
H     2.720000000     8.264000000     1.831000000
C     3.428000000     7.636000000    -0.080000000
H     4.371000000     8.160000000     0.052000000
C     3.073000000     6.838000000    -1.199000000
H     3.836000000     6.743000000    -1.967000000
C     1.865000000     6.186000000    -1.302000000
O     1.582000000     5.479000000    -2.427000000
C     2.345000000     4.412000000    -2.872000000
C     2.250000000     4.144000000    -4.230000000
H     1.662000000     4.791000000    -4.876000000
C     2.770000000     2.916000000    -4.757000000
O     2.660000000     2.626000000    -6.079000000
C     2.343000000     1.318000000    -6.495000000
C     1.065000000     0.833000000    -6.388000000
H     0.331000000     1.529000000    -5.990000000
C     3.394000000     0.537000000    -7.052000000
H     4.424000000     0.882000000    -7.023000000
C     3.138000000    -0.850000000    -7.248000000
H     3.960000000    -1.550000000    -7.381000000
C     1.857000000    -1.297000000    -7.045000000
H     1.627000000    -2.352000000    -7.170000000
C     0.782000000    -0.472000000    -6.701000000
O    -0.482000000    -0.926000000    -6.480000000
C    -0.914000000    -1.817000000    -5.491000000
C    -2.203000000    -2.316000000    -5.533000000
H    -2.902000000    -1.994000000    -6.301000000
C    -2.638000000    -3.320000000    -4.660000000
O    -3.870000000    -3.860000000    -4.762000000
C    -4.702000000    -4.001000000    -3.683000000
C    -5.138000000    -5.224000000    -3.296000000
H    -4.876000000    -6.106000000    -3.874000000
C    -5.892000000    -5.390000000    -2.176000000
H    -6.299000000    -6.360000000    -1.902000000
C    -6.120000000    -4.319000000    -1.369000000
H    -6.660000000    -4.542000000    -0.452000000
C    -5.774000000    -3.014000000    -1.712000000
C    -5.051000000    -2.861000000    -2.902000000
H    -4.696000000    -1.871000000    -3.175000000
C    -1.154000000     1.289000000     0.488000000
H    -1.739000000     1.636000000     1.336000000
C    -0.406000000     0.140000000     0.566000000
H    -0.273000000    -0.392000000     1.504000000
C     0.220000000    -0.290000000    -0.583000000
H     0.846000000    -1.155000000    -0.604000000
C     0.149000000     0.349000000    -1.778000000
H     0.638000000    -0.101000000    -2.639000000
C    -0.644000000     1.486000000    -1.908000000
H    -0.756000000     1.927000000    -2.896000000
C    -1.293000000     2.046000000    -0.734000000
C    -2.052000000     3.400000000    -0.720000000
O    -2.114000000     4.114000000    -1.706000000
O    -2.550000000     3.798000000     0.286000000
O    -2.058000000     3.595000000    -5.796000000
H    -1.394000000     3.865000000    -6.431000000
H    -1.777000000     3.993000000    -4.972000000
O    -3.227000000     9.463000000    -1.856000000
H    -3.863000000     8.953000000    -1.355000000
H    -3.741000000    10.168000000    -2.249000000
O    -6.564000000     5.376000000     1.563000000
H    -5.661000000     5.452000000     1.257000000
H    -6.911000000     4.615000000     1.097000000
O    -5.543000000     2.541000000    -2.241000000
H    -6.303000000     2.548000000    -2.823000000
H    -5.660000000     1.757000000    -1.704000000
O    -0.666000000     4.837000000    -3.866000000
H    -1.259000000     4.528000000    -3.182000000
H    -0.061000000     5.424000000    -3.411000000
O    -0.590000000     9.161000000    -1.476000000
H    -0.740000000     8.337000000    -1.012000000
H    -1.467000000     9.505000000    -1.644000000
O    -7.740000000     4.338000000    -0.632000000
H    -7.842000000     5.248000000    -0.911000000
H    -7.240000000     3.926000000    -1.336000000
O    -5.454000000     4.812000000    -5.714000000
H    -5.153000000     4.016000000    -6.151000000
H    -5.787000000     4.510000000    -4.869000000
O    -4.454000000     8.231000000     2.468000000
H    -5.409000000     8.262000000     2.513000000
H    -4.265000000     7.496000000     1.884000000
O    -5.673000000     7.415000000    -1.628000000
H    -6.457000000     7.215000000    -2.140000000
H    -5.156000000     6.610000000    -1.660000000
O    -3.777000000     6.342000000     0.692000000
H    -3.478000000     5.446000000     0.847000000
H    -3.114000000     6.720000000     0.115000000
O    -3.490000000     6.972000000    -3.818000000
H    -3.277000000     6.708000000    -4.713000000
H    -4.145000000     6.336000000    -3.531000000
O    -3.620000000     0.605000000    -2.857000000
H    -3.957000000     1.447000000    -2.550000000
H    -2.984000000     0.344000000    -2.191000000
O    -1.857000000     6.848000000    -1.441000000
H    -2.300000000     7.308000000    -2.155000000
H    -1.916000000     5.923000000    -1.680000000
O    -2.623000000     6.326000000    -6.625000000
H    -3.363000000     6.582000000    -7.176000000
H    -2.693000000     5.374000000    -6.557000000
O    -8.405000000     2.632000000     1.440000000
H    -7.507000000     2.658000000     1.771000000
H    -8.383000000     3.166000000     0.646000000
O    -4.219000000     1.828000000    -5.211000000
H    -3.559000000     2.521000000    -5.238000000
H    -3.986000000     1.305000000    -4.444000000
O    -4.555000000     4.878000000    -2.262000000
H    -4.991000000     4.073000000    -2.541000000
H    -3.705000000     4.587000000    -1.932000000
O    -0.367000000     8.510000000    -4.403000000
H    -0.608000000     7.590000000    -4.510000000
H    -0.661000000     8.734000000    -3.520000000
