215
-1449.83729
C     0.012000000     4.415000000     3.078000000
H     1.086000000     4.565000000     3.002000000
C    -0.485000000     3.241000000     3.648000000
C    -1.897000000     3.151000000     3.805000000
H    -2.354000000     2.343000000     4.371000000
C     0.321000000     1.993000000     3.738000000
O     1.664000000     2.237000000     4.181000000
H     0.339000000     1.630000000     2.700000000
O    -0.354000000     1.083000000     4.648000000
C    -0.340000000    -0.243000000     4.463000000
C    -1.582000000    -0.829000000     4.068000000
H    -2.464000000    -0.196000000     4.026000000
C    -1.683000000    -2.120000000     3.731000000
O    -2.845000000    -2.579000000     3.290000000
C    -0.496000000    -2.916000000     3.698000000
C    -0.533000000    -4.407000000     3.356000000
H     0.196000000    -4.998000000     3.915000000
C    -0.247000000    -4.481000000     1.934000000
C     1.046000000    -4.694000000     1.437000000
H     1.763000000    -4.757000000     2.251000000
H    -1.459000000    -4.910000000     3.644000000
C     0.682000000    -2.350000000     4.213000000
H     1.535000000    -3.018000000     4.304000000
C     0.775000000    -1.021000000     4.488000000
C     2.087000000    -0.480000000     5.024000000
H     2.696000000    -1.256000000     5.493000000
H     1.974000000     0.327000000     5.751000000
C     2.781000000     0.140000000     3.830000000
C     3.679000000    -0.592000000     3.021000000
H     3.745000000    -1.667000000     3.170000000
C     2.609000000     1.498000000     3.547000000
C     3.193000000     2.046000000     2.422000000
H     2.787000000     3.005000000     2.110000000
C     4.125000000     1.364000000     1.637000000
O     4.566000000     1.888000000     0.473000000
C     3.875000000     1.426000000    -0.715000000
C     3.523000000     2.572000000    -1.663000000
C     3.528000000     2.319000000    -3.024000000
H     3.836000000     1.348000000    -3.403000000
C     3.150000000     3.816000000    -1.167000000
H     3.132000000     4.030000000    -0.102000000
O     4.673000000     0.338000000    -1.324000000
H     2.907000000     0.931000000    -0.548000000
C     4.384000000    -0.001000000     1.938000000
C     5.299000000    -0.901000000     1.144000000
H     5.767000000    -1.669000000     1.765000000
H     6.052000000    -0.254000000     0.690000000
C     4.540000000    -1.624000000     0.097000000
C     4.076000000    -2.913000000     0.326000000
H     4.155000000    -3.301000000     1.339000000
C     4.290000000    -1.014000000    -1.084000000
C     3.727000000    -1.767000000    -2.129000000
H     3.331000000    -1.237000000    -2.992000000
C     3.272000000    -3.057000000    -1.928000000
O     2.394000000    -3.526000000    -2.813000000
C     1.021000000    -3.318000000    -2.634000000
C     0.332000000    -2.775000000    -3.925000000
C     1.090000000    -2.103000000    -4.907000000
H     2.175000000    -2.042000000    -4.892000000
C    -1.053000000    -2.795000000    -3.989000000
H    -1.623000000    -3.236000000    -3.176000000
O     0.381000000    -4.600000000    -2.194000000
H     0.847000000    -2.537000000    -1.880000000
C     3.379000000    -3.662000000    -0.643000000
C     2.703000000    -4.974000000    -0.341000000
H     3.224000000    -5.296000000     0.563000000
H     2.891000000    -5.712000000    -1.124000000
C     1.257000000    -4.796000000     0.059000000
C     0.177000000    -4.577000000    -0.816000000
C    -1.113000000    -4.465000000    -0.327000000
H    -1.968000000    -4.410000000    -0.997000000
C    -1.305000000    -4.414000000     1.046000000
O    -2.624000000    -4.159000000     1.440000000
C    -2.920000000    -2.813000000     1.862000000
H    -2.185000000    -2.144000000     1.389000000
C    -4.229000000    -2.251000000     1.334000000
C    -4.838000000    -1.217000000     2.023000000
H    -4.360000000    -0.822000000     2.916000000
C    -4.716000000    -2.694000000     0.079000000
H    -4.313000000    -3.583000000    -0.399000000
C    -5.884000000    -2.145000000    -0.415000000
O    -6.425000000    -2.627000000    -1.646000000
C    -6.530000000    -1.164000000     0.283000000
H    -7.441000000    -0.731000000    -0.122000000
C    -5.988000000    -0.674000000     1.479000000
O    -6.605000000     0.389000000     2.130000000
C    -6.065000000     1.056000000     3.174000000
C    -5.306000000     2.143000000     2.816000000
H    -5.188000000     2.338000000     1.753000000
C    -6.316000000     0.769000000     4.532000000
H    -6.966000000    -0.077000000     4.740000000
C    -5.727000000     1.543000000     5.526000000
H    -6.120000000     1.328000000     6.516000000
C    -5.021000000     2.711000000     5.178000000
H    -4.678000000     3.382000000     5.960000000
C    -4.754000000     2.914000000     3.815000000
O    -4.092000000     4.082000000     3.500000000
C    -2.689000000     4.141000000     3.381000000
C    -2.140000000     5.220000000     2.711000000
H    -2.863000000     5.932000000     2.321000000
C    -0.775000000     5.453000000     2.636000000
O    -0.373000000     6.672000000     2.106000000
C     0.791000000     6.872000000     1.417000000
C     1.084000000     6.325000000     0.232000000
H     0.318000000     5.638000000    -0.119000000
C     1.727000000     7.817000000     1.922000000
H     1.517000000     8.304000000     2.871000000
C     2.906000000     8.121000000     1.246000000
H     3.572000000     8.905000000     1.598000000
C     3.088000000     7.632000000    -0.081000000
H     3.915000000     7.995000000    -0.686000000
C     2.200000000     6.655000000    -0.458000000
O     2.457000000     6.163000000    -1.670000000
C     2.635000000     4.836000000    -2.107000000
C     2.682000000     4.558000000    -3.483000000
H     2.443000000     5.351000000    -4.188000000
C     3.144000000     3.359000000    -3.883000000
O     3.049000000     3.122000000    -5.270000000
C     3.257000000     1.885000000    -5.767000000
C     2.098000000     1.173000000    -6.185000000
H     1.076000000     1.538000000    -6.115000000
C     4.512000000     1.285000000    -5.818000000
H     5.367000000     1.769000000    -5.353000000
C     4.610000000     0.150000000    -6.565000000
H     5.607000000    -0.208000000    -6.808000000
C     3.510000000    -0.584000000    -6.946000000
H     3.574000000    -1.592000000    -7.346000000
C     2.237000000    -0.089000000    -6.782000000
O     1.183000000    -0.921000000    -6.981000000
C     0.446000000    -1.447000000    -5.960000000
C    -0.913000000    -1.384000000    -5.935000000
H    -1.383000000    -0.780000000    -6.707000000
C    -1.690000000    -2.022000000    -4.974000000
O    -3.069000000    -1.930000000    -5.065000000
C    -3.950000000    -2.825000000    -4.416000000
C    -4.091000000    -4.163000000    -4.710000000
H    -3.378000000    -4.542000000    -5.438000000
C    -5.097000000    -4.931000000    -4.115000000
H    -5.193000000    -5.965000000    -4.437000000
C    -5.821000000    -4.442000000    -3.020000000
H    -6.540000000    -5.047000000    -2.473000000
C    -5.640000000    -3.114000000    -2.655000000
C    -4.782000000    -2.310000000    -3.378000000
H    -4.633000000    -1.276000000    -3.077000000
C    -1.878000000     2.004000000     0.235000000
H    -2.705000000     2.655000000     0.504000000
C    -1.647000000     0.835000000     0.987000000
H    -2.307000000     0.656000000     1.832000000
C    -0.549000000    -0.009000000     0.707000000
H    -0.275000000    -0.886000000     1.385000000
C     0.249000000     0.321000000    -0.381000000
H     1.112000000    -0.334000000    -0.467000000
C     0.107000000     1.468000000    -1.116000000
H     0.834000000     1.727000000    -1.882000000
C    -0.949000000     2.360000000    -0.789000000
C    -1.172000000     3.636000000    -1.550000000
O    -0.411000000     3.898000000    -2.470000000
O    -2.182000000     4.278000000    -1.339000000
O    -2.100000000     2.503000000    -6.904000000
H    -1.448000000     2.964000000    -6.377000000
H    -2.854000000     2.406000000    -6.322000000
O    -0.160000000     3.601000000    -5.113000000
H     0.774000000     3.744000000    -5.266000000
H    -0.308000000     3.915000000    -4.221000000
O    -6.327000000     6.488000000    -2.412000000
H    -5.575000000     6.508000000    -1.821000000
H    -6.330000000     5.598000000    -2.766000000
O    -0.422000000     6.507000000    -3.007000000
H    -0.358000000     5.594000000    -2.727000000
H    -1.308000000     6.771000000    -2.761000000
O    -3.644000000     9.292000000     1.680000000
H    -4.503000000     9.498000000     1.309000000
H    -3.236000000     8.717000000     1.033000000
O    -6.498000000     2.352000000    -0.549000000
H    -6.962000000     1.925000000    -1.270000000
H    -5.574000000     2.290000000    -0.790000000
O     0.559000000     6.489000000    -5.782000000
H     0.007000000     7.271000000    -5.781000000
H     0.340000000     6.040000000    -4.966000000
O    -5.990000000     4.190000000    -3.521000000
H    -5.080000000     4.447000000    -3.368000000
H    -6.082000000     3.353000000    -3.066000000
O     1.392000000     8.500000000    -3.789000000
H     1.042000000     7.670000000    -3.464000000
H     2.331000000     8.450000000    -3.612000000
O    -3.426000000     5.327000000    -3.806000000
H    -3.555000000     6.269000000    -3.695000000
H    -2.768000000     5.096000000    -3.150000000
O    -5.503000000     6.525000000    -6.517000000
H    -6.180000000     6.874000000    -5.937000000
H    -4.929000000     6.022000000    -5.940000000
O    -2.430000000     0.373000000    -2.540000000
H    -1.576000000     0.795000000    -2.444000000
H    -2.303000000    -0.508000000    -2.187000000
O    -0.754000000     5.005000000    -8.378000000
H    -1.617000000     4.595000000    -8.315000000
H    -0.624000000     5.421000000    -7.525000000
O    -3.800000000     6.178000000    -0.814000000
H    -3.139000000     6.860000000    -0.698000000
H    -3.300000000     5.362000000    -0.842000000
O    -5.796000000     6.639000000     0.957000000
H    -5.900000000     7.568000000     0.754000000
H    -5.039000000     6.364000000     0.441000000
O    -4.040000000     2.185000000    -5.074000000
H    -3.914000000     1.862000000    -4.181000000
H    -4.731000000     2.843000000    -4.994000000
O     5.489000000     5.417000000    -2.275000000
H     5.716000000     5.884000000    -1.470000000
H     4.545000000     5.545000000    -2.368000000
O    -4.140000000     2.611000000    -1.813000000
H    -3.593000000     1.826000000    -1.824000000
H    -3.527000000     3.327000000    -1.643000000
O    -1.996000000     8.162000000    -0.594000000
H    -1.083000000     8.265000000    -0.326000000
H    -2.211000000     8.985000000    -1.033000000
