215
-1450.39055
C    -0.285000000     3.853000000     2.129000000
H     0.750000000     3.836000000     1.798000000
C    -0.747000000     3.020000000     3.158000000
C    -2.071000000     3.065000000     3.633000000
H    -2.443000000     2.307000000     4.317000000
C     0.144000000     1.770000000     3.594000000
O     1.463000000     2.314000000     3.998000000
H     0.296000000     1.117000000     2.723000000
O    -0.362000000     1.029000000     4.731000000
C    -0.428000000    -0.354000000     4.619000000
C    -1.648000000    -0.926000000     4.151000000
H    -2.519000000    -0.291000000     4.013000000
C    -1.590000000    -2.240000000     3.696000000
O    -2.750000000    -2.756000000     3.125000000
C    -0.432000000    -3.005000000     3.847000000
C    -0.580000000    -4.485000000     3.405000000
H     0.087000000    -5.216000000     3.868000000
C    -0.357000000    -4.645000000     1.920000000
C     0.974000000    -4.846000000     1.504000000
H     1.758000000    -4.837000000     2.257000000
H    -1.581000000    -4.856000000     3.637000000
C     0.743000000    -2.393000000     4.303000000
H     1.611000000    -3.017000000     4.498000000
C     0.797000000    -1.059000000     4.616000000
C     2.106000000    -0.408000000     5.107000000
H     2.863000000    -1.122000000     5.438000000
H     1.889000000     0.200000000     5.988000000
C     2.826000000     0.322000000     3.991000000
C     3.916000000    -0.337000000     3.430000000
H     4.062000000    -1.381000000     3.695000000
C     2.516000000     1.588000000     3.511000000
C     3.237000000     2.132000000     2.388000000
H     2.923000000     3.011000000     1.830000000
C     4.259000000     1.407000000     1.829000000
O     4.785000000     1.907000000     0.650000000
C     4.173000000     1.527000000    -0.571000000
C     3.971000000     2.708000000    -1.443000000
C     3.693000000     2.460000000    -2.826000000
H     3.752000000     1.439000000    -3.196000000
C     3.967000000     4.004000000    -0.969000000
H     4.204000000     4.381000000     0.023000000
O     5.012000000     0.499000000    -1.086000000
H     3.229000000     1.045000000    -0.275000000
C     4.617000000     0.183000000     2.341000000
C     5.474000000    -0.762000000     1.505000000
H     5.892000000    -1.499000000     2.194000000
H     6.371000000    -0.227000000     1.185000000
C     4.754000000    -1.415000000     0.328000000
C     4.168000000    -2.636000000     0.626000000
H     4.309000000    -3.161000000     1.567000000
C     4.589000000    -0.811000000    -0.907000000
C     3.908000000    -1.433000000    -1.882000000
H     3.741000000    -1.018000000    -2.873000000
C     3.240000000    -2.613000000    -1.607000000
O     2.510000000    -3.162000000    -2.675000000
C     1.046000000    -3.205000000    -2.611000000
C     0.330000000    -2.823000000    -3.890000000
C     0.968000000    -1.921000000    -4.723000000
H     1.975000000    -1.579000000    -4.498000000
C    -0.946000000    -3.239000000    -4.103000000
H    -1.354000000    -3.846000000    -3.298000000
O     0.676000000    -4.510000000    -2.172000000
H     0.751000000    -2.556000000    -1.774000000
C     3.377000000    -3.247000000    -0.368000000
C     2.854000000    -4.669000000    -0.169000000
H     3.504000000    -5.135000000     0.574000000
H     3.079000000    -5.302000000    -1.030000000
C     1.385000000    -4.788000000     0.153000000
C     0.397000000    -4.657000000    -0.823000000
C    -0.895000000    -4.555000000    -0.402000000
H    -1.634000000    -4.482000000    -1.196000000
C    -1.359000000    -4.531000000     0.899000000
O    -2.643000000    -4.153000000     1.138000000
C    -2.865000000    -2.834000000     1.675000000
H    -2.030000000    -2.231000000     1.289000000
C    -4.111000000    -2.183000000     1.144000000
C    -4.905000000    -1.338000000     1.918000000
H    -4.768000000    -1.191000000     2.987000000
C    -4.357000000    -2.233000000    -0.220000000
H    -3.792000000    -2.943000000    -0.818000000
C    -5.357000000    -1.497000000    -0.801000000
O    -5.521000000    -1.494000000    -2.119000000
C    -6.256000000    -0.889000000     0.030000000
H    -7.122000000    -0.316000000    -0.288000000
C    -5.962000000    -0.655000000     1.332000000
O    -6.760000000     0.162000000     2.109000000
C    -6.341000000     1.100000000     3.017000000
C    -5.377000000     2.068000000     2.713000000
H    -4.910000000     2.150000000     1.735000000
C    -6.831000000     0.970000000     4.349000000
H    -7.534000000     0.162000000     4.536000000
C    -6.407000000     1.865000000     5.316000000
H    -6.803000000     1.798000000     6.326000000
C    -5.554000000     2.884000000     4.988000000
H    -5.238000000     3.584000000     5.757000000
C    -5.081000000     2.981000000     3.749000000
O    -4.301000000     4.098000000     3.548000000
C    -2.952000000     3.986000000     3.128000000
C    -2.527000000     4.923000000     2.224000000
H    -3.231000000     5.564000000     1.700000000
C    -1.175000000     4.878000000     1.763000000
O    -0.805000000     5.721000000     0.753000000
C     0.384000000     6.311000000     0.764000000
C     1.241000000     5.956000000    -0.306000000
H     0.868000000     5.361000000    -1.136000000
C     0.799000000     7.079000000     1.817000000
H     0.100000000     7.274000000     2.626000000
C     2.098000000     7.569000000     1.882000000
H     2.410000000     8.167000000     2.734000000
C     3.002000000     7.262000000     0.808000000
H     3.969000000     7.759000000     0.793000000
C     2.540000000     6.492000000    -0.289000000
O     3.384000000     6.302000000    -1.374000000
C     3.560000000     5.025000000    -1.797000000
C     3.252000000     4.800000000    -3.120000000
H     3.051000000     5.604000000    -3.823000000
C     3.413000000     3.513000000    -3.705000000
O     3.115000000     3.294000000    -4.967000000
C     3.144000000     2.104000000    -5.646000000
C     1.951000000     1.495000000    -5.839000000
H     1.040000000     1.994000000    -5.519000000
C     4.366000000     1.580000000    -6.132000000
H     5.262000000     2.191000000    -6.050000000
C     4.436000000     0.331000000    -6.861000000
H     5.384000000     0.104000000    -7.341000000
C     3.199000000    -0.339000000    -6.948000000
H     3.070000000    -1.204000000    -7.593000000
C     1.972000000     0.204000000    -6.428000000
O     0.827000000    -0.483000000    -6.687000000
C     0.278000000    -1.435000000    -5.863000000
C    -0.940000000    -2.017000000    -6.208000000
H    -1.538000000    -1.620000000    -7.024000000
C    -1.566000000    -2.872000000    -5.280000000
O    -2.882000000    -3.355000000    -5.633000000
C    -3.895000000    -3.473000000    -4.651000000
C    -4.527000000    -4.763000000    -4.434000000
H    -4.342000000    -5.635000000    -5.057000000
C    -5.461000000    -4.889000000    -3.410000000
H    -5.934000000    -5.832000000    -3.150000000
C    -5.753000000    -3.733000000    -2.700000000
H    -6.558000000    -3.821000000    -1.975000000
C    -5.169000000    -2.517000000    -2.924000000
C    -4.260000000    -2.383000000    -3.902000000
H    -3.732000000    -1.447000000    -4.063000000
C    -2.209000000     1.918000000    -0.026000000
H    -3.120000000     2.503000000     0.073000000
C    -1.951000000     0.835000000     0.698000000
H    -2.764000000     0.388000000     1.264000000
C    -0.709000000     0.277000000     0.630000000
H    -0.473000000    -0.634000000     1.131000000
C     0.283000000     0.778000000    -0.174000000
H     1.182000000     0.170000000    -0.239000000
C     0.025000000     1.934000000    -0.957000000
H     0.746000000     2.378000000    -1.639000000
C    -1.263000000     2.490000000    -0.855000000
C    -1.627000000     3.665000000    -1.758000000
O    -0.814000000     4.085000000    -2.604000000
O    -2.799000000     4.026000000    -1.873000000
O    -3.864000000     0.749000000    -7.704000000
H    -3.226000000     0.831000000    -6.996000000
H    -4.226000000    -0.131000000    -7.599000000
O    -1.503000000     3.282000000    -4.969000000
H    -2.110000000     4.001000000    -5.143000000
H    -1.097000000     3.510000000    -4.132000000
O    -7.153000000     7.448000000    -3.183000000
H    -6.825000000     6.564000000    -3.348000000
H    -7.709000000     7.642000000    -3.939000000
O    -5.502000000     1.133000000    -4.769000000
H    -4.616000000     0.776000000    -4.831000000
H    -6.072000000     0.364000000    -4.791000000
O    -1.502000000     6.811000000    -2.787000000
H    -1.470000000     5.868000000    -2.624000000
H    -2.144000000     7.140000000    -2.158000000
O    -7.575000000     2.349000000    -1.786000000
H    -7.564000000     2.903000000    -2.566000000
H    -6.658000000     2.289000000    -1.521000000
O     0.318000000     4.215000000    -6.913000000
H     0.780000000     4.902000000    -6.432000000
H    -0.268000000     3.822000000    -6.266000000
O     0.102000000     7.754000000    -5.090000000
H    -0.236000000     7.405000000    -4.266000000
H     1.017000000     7.964000000    -4.904000000
O     0.115000000     8.760000000    -1.372000000
H    -0.481000000     9.000000000    -0.662000000
H    -0.216000000     7.919000000    -1.689000000
O    -3.759000000     4.908000000    -4.281000000
H    -4.180000000     5.768000000    -4.286000000
H    -3.393000000     4.826000000    -3.400000000
O    -3.899000000     6.837000000    -6.927000000
H    -4.547000000     6.189000000    -7.200000000
H    -4.256000000     7.206000000    -6.119000000
O    -2.540000000     0.072000000    -2.400000000
H    -3.139000000    -0.070000000    -1.668000000
H    -1.698000000     0.266000000    -1.987000000
O    -5.438000000     3.500000000    -6.379000000
H    -5.683000000     2.600000000    -6.165000000
H    -4.933000000     3.797000000    -5.622000000
O    -4.734000000     5.275000000    -0.481000000
H    -4.361000000     6.149000000    -0.599000000
H    -4.141000000     4.695000000    -0.959000000
O    -4.335000000     8.413000000    -4.673000000
H    -5.082000000     8.726000000    -5.183000000
H    -4.507000000     8.721000000    -3.783000000
O    -6.923000000     4.716000000     1.068000000
H    -6.462000000     4.446000000     1.862000000
H    -6.235000000     5.053000000     0.494000000
O    -2.591000000     0.769000000    -5.242000000
H    -2.576000000     0.659000000    -4.291000000
H    -1.903000000     1.410000000    -5.421000000
O    -4.829000000     2.168000000    -2.329000000
H    -4.889000000     1.839000000    -3.226000000
H    -4.071000000     2.752000000    -2.337000000
O    -3.152000000     7.672000000    -0.612000000
H    -2.818000000     7.441000000     0.255000000
H    -3.319000000     8.613000000    -0.562000000
