215
-1445.93343
C    -0.010000000     4.513000000     2.485000000
H     1.046000000     4.564000000     2.232000000
C    -0.417000000     3.335000000     3.129000000
C    -1.746000000     3.110000000     3.439000000
H    -2.001000000     2.145000000     3.870000000
C     0.579000000     2.177000000     3.313000000
O     1.956000000     2.559000000     3.436000000
H     0.568000000     1.562000000     2.401000000
O     0.298000000     1.437000000     4.460000000
C     0.248000000     0.050000000     4.419000000
C    -0.947000000    -0.606000000     4.320000000
H    -1.870000000    -0.032000000     4.309000000
C    -0.968000000    -2.010000000     4.140000000
O    -2.128000000    -2.757000000     3.950000000
C     0.227000000    -2.714000000     4.035000000
C     0.129000000    -4.187000000     3.760000000
H     0.976000000    -4.693000000     4.230000000
C     0.265000000    -4.317000000     2.297000000
C     1.541000000    -4.366000000     1.681000000
H     2.409000000    -4.216000000     2.318000000
H    -0.738000000    -4.699000000     4.181000000
C     1.443000000    -2.002000000     4.195000000
H     2.404000000    -2.499000000     4.087000000
C     1.445000000    -0.636000000     4.363000000
C     2.794000000     0.116000000     4.437000000
H     3.538000000    -0.615000000     4.759000000
H     2.772000000     0.858000000     5.238000000
C     3.353000000     0.651000000     3.109000000
C     4.288000000    -0.021000000     2.337000000
H     4.590000000    -0.966000000     2.780000000
C     2.946000000     1.922000000     2.735000000
C     3.345000000     2.478000000     1.520000000
H     2.826000000     3.373000000     1.186000000
C     4.266000000     1.773000000     0.738000000
O     4.536000000     2.200000000    -0.511000000
C     3.818000000     1.675000000    -1.613000000
C     3.421000000     2.679000000    -2.634000000
C     3.165000000     2.380000000    -3.967000000
H     3.254000000     1.337000000    -4.260000000
C     3.171000000     4.004000000    -2.186000000
H     3.312000000     4.225000000    -1.131000000
O     4.575000000     0.611000000    -2.165000000
H     2.804000000     1.377000000    -1.307000000
C     4.812000000     0.549000000     1.178000000
C     5.743000000    -0.253000000     0.332000000
H     6.351000000    -0.973000000     0.883000000
H     6.426000000     0.398000000    -0.217000000
C     4.825000000    -1.192000000    -0.516000000
C     4.437000000    -2.438000000    -0.101000000
H     4.847000000    -2.876000000     0.805000000
C     4.341000000    -0.681000000    -1.714000000
C     3.450000000    -1.406000000    -2.435000000
H     3.091000000    -0.998000000    -3.376000000
C     2.985000000    -2.628000000    -1.998000000
O     2.151000000    -3.326000000    -2.752000000
C     0.689000000    -3.307000000    -2.451000000
C    -0.219000000    -3.030000000    -3.617000000
C     0.248000000    -2.256000000    -4.652000000
H     1.294000000    -1.964000000    -4.683000000
C    -1.604000000    -3.458000000    -3.601000000
H    -1.920000000    -4.083000000    -2.770000000
O     0.469000000    -4.550000000    -1.822000000
H     0.488000000    -2.491000000    -1.741000000
C     3.446000000    -3.155000000    -0.811000000
C     3.026000000    -4.577000000    -0.279000000
H     3.745000000    -4.912000000     0.471000000
H     3.102000000    -5.339000000    -1.057000000
C     1.645000000    -4.574000000     0.309000000
C     0.481000000    -4.714000000    -0.442000000
C    -0.743000000    -4.592000000     0.140000000
H    -1.658000000    -4.546000000    -0.445000000
C    -0.892000000    -4.358000000     1.526000000
O    -2.109000000    -4.122000000     2.079000000
C    -2.387000000    -2.831000000     2.566000000
H    -1.920000000    -2.119000000     1.869000000
C    -3.843000000    -2.446000000     2.328000000
C    -4.569000000    -1.657000000     3.196000000
H    -4.190000000    -1.481000000     4.200000000
C    -4.322000000    -2.636000000     1.039000000
H    -3.848000000    -3.357000000     0.378000000
C    -5.492000000    -2.035000000     0.565000000
O    -5.976000000    -2.247000000    -0.753000000
C    -6.216000000    -1.266000000     1.493000000
H    -7.145000000    -0.771000000     1.222000000
C    -5.728000000    -1.108000000     2.780000000
O    -6.430000000    -0.302000000     3.713000000
C    -5.928000000     0.809000000     4.365000000
C    -5.283000000     1.780000000     3.585000000
H    -5.309000000     1.753000000     2.499000000
C    -6.120000000     0.971000000     5.759000000
H    -6.554000000     0.206000000     6.398000000
C    -5.542000000     2.160000000     6.318000000
H    -5.717000000     2.305000000     7.381000000
C    -4.867000000     3.137000000     5.595000000
H    -4.516000000     4.029000000     6.108000000
C    -4.688000000     2.918000000     4.226000000
O    -4.013000000     3.885000000     3.509000000
C    -2.692000000     4.068000000     3.155000000
C    -2.326000000     5.208000000     2.410000000
H    -3.148000000     5.908000000     2.287000000
C    -0.972000000     5.414000000     1.985000000
O    -0.667000000     6.545000000     1.196000000
C     0.602000000     6.716000000     0.654000000
C     0.753000000     6.441000000    -0.669000000
H    -0.088000000     6.014000000    -1.209000000
C     1.597000000     7.305000000     1.328000000
H     1.442000000     7.520000000     2.382000000
C     2.825000000     7.636000000     0.758000000
H     3.644000000     8.142000000     1.262000000
C     2.994000000     7.289000000    -0.569000000
H     3.969000000     7.446000000    -1.023000000
C     1.994000000     6.646000000    -1.307000000
O     2.290000000     6.285000000    -2.561000000
C     2.616000000     4.981000000    -3.020000000
C     2.281000000     4.575000000    -4.307000000
H     1.769000000     5.209000000    -5.026000000
C     2.605000000     3.317000000    -4.786000000
O     2.419000000     3.008000000    -6.161000000
C     2.296000000     1.695000000    -6.668000000
C     1.047000000     1.036000000    -6.560000000
H     0.206000000     1.707000000    -6.405000000
C     3.428000000     0.924000000    -6.945000000
H     4.390000000     1.429000000    -6.994000000
C     3.405000000    -0.493000000    -7.211000000
H     4.310000000    -1.054000000    -7.430000000
C     2.183000000    -1.097000000    -7.119000000
H     2.239000000    -2.159000000    -7.348000000
C     1.024000000    -0.343000000    -6.770000000
O    -0.214000000    -0.947000000    -6.686000000
C    -0.564000000    -1.790000000    -5.727000000
C    -1.878000000    -2.263000000    -5.726000000
H    -2.554000000    -1.971000000    -6.525000000
C    -2.352000000    -3.084000000    -4.719000000
O    -3.628000000    -3.604000000    -4.749000000
C    -4.399000000    -3.794000000    -3.655000000
C    -4.650000000    -5.105000000    -3.310000000
H    -4.255000000    -5.923000000    -3.907000000
C    -5.376000000    -5.408000000    -2.130000000
H    -5.581000000    -6.420000000    -1.790000000
C    -5.745000000    -4.448000000    -1.283000000
H    -6.262000000    -4.605000000    -0.340000000
C    -5.465000000    -3.112000000    -1.642000000
C    -4.819000000    -2.738000000    -2.815000000
H    -4.537000000    -1.699000000    -2.964000000
C    -2.119000000     1.860000000    -0.045000000
H    -3.028000000     2.275000000     0.382000000
C    -1.728000000     0.631000000     0.460000000
H    -2.315000000     0.050000000     1.166000000
C    -0.579000000     0.029000000    -0.127000000
H    -0.325000000    -0.916000000     0.251000000
C     0.171000000     0.707000000    -1.134000000
H     0.986000000     0.196000000    -1.640000000
C    -0.336000000     1.896000000    -1.670000000
H     0.226000000     2.282000000    -2.517000000
C    -1.468000000     2.511000000    -1.090000000
C    -2.018000000     3.799000000    -1.601000000
O    -1.583000000     4.306000000    -2.617000000
O    -2.898000000     4.302000000    -0.956000000
O    -1.510000000     3.296000000    -4.856000000
H    -2.319000000     3.665000000    -5.210000000
H    -1.415000000     3.708000000    -3.997000000
O    -7.128000000     6.641000000    -0.752000000
H    -7.289000000     5.948000000    -0.112000000
H    -7.071000000     6.184000000    -1.591000000
O    -6.312000000     1.494000000    -3.362000000
H    -5.414000000     1.520000000    -3.693000000
H    -6.482000000     0.565000000    -3.205000000
O    -2.192000000     6.849000000    -2.904000000
H    -1.863000000     5.968000000    -2.723000000
H    -2.381000000     7.216000000    -2.041000000
O    -5.407000000     7.435000000     2.141000000
H    -5.024000000     7.023000000     1.367000000
H    -6.037000000     8.064000000     1.791000000
O    -7.737000000     1.386000000    -0.313000000
H    -8.082000000     2.188000000    -0.704000000
H    -6.857000000     1.622000000    -0.020000000
O    -0.330000000     4.213000000    -7.154000000
H    -0.206000000     5.157000000    -7.056000000
H    -0.862000000     3.961000000    -6.400000000
O    -7.057000000     5.672000000    -3.369000000
H    -7.383000000     5.597000000    -4.266000000
H    -6.117000000     5.507000000    -3.441000000
O    -0.783000000     9.544000000    -0.142000000
H    -0.894000000    10.249000000     0.496000000
H    -0.760000000     8.745000000     0.385000000
O    -4.536000000     5.128000000    -3.257000000
H    -4.218000000     6.004000000    -3.471000000
H    -3.957000000     4.827000000    -2.556000000
O    -7.654000000     4.711000000     1.030000000
H    -7.348000000     4.032000000     0.429000000
H    -7.568000000     4.319000000     1.899000000
O    -3.549000000     0.441000000    -2.062000000
H    -4.201000000     0.736000000    -1.427000000
H    -2.763000000     0.277000000    -1.541000000
O    -4.115000000     6.577000000    -0.122000000
H    -4.435000000     6.695000000    -1.017000000
H    -3.674000000     5.728000000    -0.136000000
O    -5.087000000     8.196000000    -2.587000000
H    -5.337000000     8.027000000    -3.495000000
H    -5.877000000     8.555000000    -2.183000000
O    -2.297000000     7.117000000    -5.740000000
H    -2.147000000     6.943000000    -4.811000000
H    -1.498000000     7.556000000    -6.034000000
O    -3.213000000     1.128000000    -4.652000000
H    -3.132000000     0.833000000    -3.745000000
H    -2.625000000     1.881000000    -4.713000000
O    -5.524000000     2.836000000    -0.717000000
H    -5.902000000     2.645000000    -1.575000000
H    -4.663000000     3.208000000    -0.912000000
O    -3.957000000     4.019000000    -5.572000000
H    -4.685000000     4.042000000    -6.194000000
H    -4.258000000     4.542000000    -4.830000000
O    -2.954000000     9.005000000     1.552000000
H    -3.019000000     8.338000000     0.869000000
H    -2.968000000     9.836000000     1.078000000
