215
-1447.55299
C     3.271000000     0.175000000    -3.148000000
H     2.803000000    -0.757000000    -3.452000000
C     3.789000000     0.291000000    -1.825000000
C     4.261000000     1.530000000    -1.435000000
H     4.771000000     1.543000000    -0.475000000
C     3.839000000    -0.874000000    -0.809000000
O     4.056000000    -2.122000000    -1.430000000
H     2.849000000    -0.889000000    -0.330000000
O     4.789000000    -0.690000000     0.270000000
C     4.254000000    -0.926000000     1.538000000
C     3.759000000     0.231000000     2.147000000
H     3.937000000     1.246000000     1.803000000
C     3.061000000     0.073000000     3.344000000
O     2.745000000     1.223000000     4.028000000
C     2.765000000    -1.154000000     3.861000000
C     1.889000000    -1.313000000     5.114000000
H     2.110000000    -2.274000000     5.583000000
C     0.413000000    -1.115000000     4.793000000
C    -0.404000000    -2.251000000     4.498000000
H     0.096000000    -3.216000000     4.477000000
H     2.133000000    -0.554000000     5.860000000
C     3.190000000    -2.281000000     3.158000000
H     3.007000000    -3.259000000     3.594000000
C     3.920000000    -2.207000000     1.962000000
C     4.306000000    -3.432000000     1.088000000
H     4.441000000    -4.269000000     1.777000000
H     5.252000000    -3.414000000     0.542000000
C     3.172000000    -3.715000000     0.064000000
C     2.096000000    -4.572000000     0.385000000
H     2.196000000    -5.104000000     1.328000000
C     3.121000000    -3.028000000    -1.162000000
C     1.992000000    -3.162000000    -2.008000000
H     1.872000000    -2.636000000    -2.951000000
C     0.927000000    -3.976000000    -1.647000000
O    -0.030000000    -4.137000000    -2.629000000
C    -1.207000000    -3.300000000    -2.505000000
C    -1.667000000    -2.844000000    -3.902000000
C    -2.994000000    -2.427000000    -4.113000000
H    -3.753000000    -2.498000000    -3.338000000
C    -0.825000000    -2.788000000    -4.991000000
H     0.190000000    -3.173000000    -4.955000000
O    -2.147000000    -4.035000000    -1.771000000
H    -1.026000000    -2.365000000    -1.954000000
C     1.004000000    -4.694000000    -0.450000000
C    -0.195000000    -5.482000000    -0.030000000
H     0.037000000    -6.120000000     0.825000000
H    -0.465000000    -6.083000000    -0.901000000
C    -1.415000000    -4.645000000     0.489000000
C    -1.541000000    -4.532000000     1.840000000
H    -0.767000000    -4.934000000     2.489000000
C    -2.230000000    -3.962000000    -0.414000000
C    -3.264000000    -3.161000000     0.094000000
H    -3.998000000    -2.676000000    -0.545000000
C    -3.362000000    -3.006000000     1.471000000
O    -4.263000000    -2.001000000     1.801000000
C    -3.766000000    -0.725000000     2.142000000
C    -4.371000000     0.533000000     1.529000000
C    -4.873000000     0.415000000     0.274000000
H    -4.792000000    -0.564000000    -0.192000000
C    -4.389000000     1.762000000     2.155000000
H    -3.979000000     1.854000000     3.158000000
O    -3.523000000    -0.665000000     3.547000000
H    -2.752000000    -0.633000000     1.726000000
C    -2.494000000    -3.680000000     2.305000000
C    -2.549000000    -3.378000000     3.798000000
H    -2.181000000    -4.115000000     4.515000000
H    -3.592000000    -3.157000000     4.035000000
C    -1.698000000    -2.153000000     4.030000000
C    -2.230000000    -0.850000000     3.988000000
C    -1.488000000     0.347000000     4.186000000
H    -2.024000000     1.288000000     4.093000000
C    -0.191000000     0.210000000     4.625000000
O     0.598000000     1.398000000     4.731000000
C     1.514000000     1.793000000     3.704000000
H     1.160000000     1.468000000     2.715000000
C     1.554000000     3.252000000     3.404000000
C     2.760000000     3.860000000     3.094000000
H     3.705000000     3.324000000     3.065000000
C     0.309000000     3.936000000     3.308000000
H    -0.629000000     3.495000000     3.636000000
C     0.332000000     5.282000000     3.023000000
O    -0.775000000     6.063000000     3.078000000
C     1.476000000     5.902000000     2.643000000
H     1.505000000     6.968000000     2.436000000
C     2.658000000     5.191000000     2.599000000
O     3.767000000     5.857000000     2.028000000
C     4.724000000     5.157000000     1.197000000
C     4.466000000     4.864000000    -0.152000000
H     3.541000000     5.139000000    -0.652000000
C     5.941000000     4.798000000     1.723000000
H     6.006000000     4.967000000     2.795000000
C     6.888000000     4.127000000     1.024000000
H     7.811000000     3.786000000     1.485000000
C     6.721000000     3.822000000    -0.294000000
H     7.488000000     3.308000000    -0.867000000
C     5.441000000     4.155000000    -0.850000000
O     5.102000000     3.787000000    -2.181000000
C     4.408000000     2.562000000    -2.418000000
C     3.956000000     2.476000000    -3.681000000
H     3.906000000     3.368000000    -4.300000000
C     3.352000000     1.234000000    -3.987000000
O     2.915000000     1.094000000    -5.238000000
C     2.679000000    -0.008000000    -5.962000000
C     1.304000000    -0.397000000    -6.081000000
H     0.500000000     0.164000000    -5.611000000
C     3.679000000    -0.738000000    -6.566000000
H     4.702000000    -0.470000000    -6.312000000
C     3.435000000    -1.886000000    -7.293000000
H     4.273000000    -2.461000000    -7.680000000
C     2.104000000    -2.266000000    -7.442000000
H     1.800000000    -3.078000000    -8.096000000
C     1.054000000    -1.537000000    -6.860000000
O    -0.234000000    -1.930000000    -7.183000000
C    -1.214000000    -2.147000000    -6.192000000
C    -2.480000000    -1.691000000    -6.327000000
H    -2.876000000    -1.258000000    -7.242000000
C    -3.327000000    -1.705000000    -5.229000000
O    -4.616000000    -1.259000000    -5.434000000
C    -5.397000000    -1.066000000    -4.336000000
C    -5.381000000     0.147000000    -3.590000000
H    -4.578000000     0.871000000    -3.704000000
C    -6.353000000    -1.995000000    -4.111000000
H    -6.452000000    -2.834000000    -4.795000000
C    -7.192000000    -1.862000000    -3.012000000
H    -7.980000000    -2.550000000    -2.715000000
C    -7.138000000    -0.723000000    -2.207000000
H    -7.705000000    -0.753000000    -1.279000000
C    -6.164000000     0.192000000    -2.457000000
O    -6.074000000     1.327000000    -1.671000000
C    -5.494000000     1.452000000    -0.391000000
C    -5.495000000     2.698000000     0.191000000
H    -5.919000000     3.588000000    -0.266000000
C    -4.957000000     2.856000000     1.474000000
O    -4.983000000     4.049000000     2.139000000
C    -4.132000000     4.508000000     3.075000000
C    -4.319000000     4.351000000     4.416000000
H    -5.328000000     4.116000000     4.745000000
C    -3.417000000     4.926000000     5.359000000
H    -3.496000000     4.908000000     6.443000000
C    -2.192000000     5.464000000     4.882000000
H    -1.442000000     5.883000000     5.548000000
C    -1.959000000     5.563000000     3.527000000
C    -2.914000000     5.105000000     2.622000000
H    -2.852000000     5.255000000     1.547000000
C    -1.284000000     1.219000000    -2.597000000
H    -1.387000000     1.091000000    -3.671000000
C    -0.493000000     0.373000000    -1.844000000
H     0.058000000    -0.431000000    -2.326000000
C    -0.537000000     0.417000000    -0.447000000
H    -0.092000000    -0.246000000     0.227000000
C    -1.223000000     1.436000000     0.165000000
H    -1.251000000     1.392000000     1.250000000
C    -1.873000000     2.407000000    -0.570000000
H    -2.238000000     3.330000000    -0.128000000
C    -1.945000000     2.260000000    -1.994000000
C    -2.594000000     3.321000000    -2.818000000
O    -2.865000000     4.377000000    -2.291000000
O    -2.686000000     3.243000000    -4.020000000
O    -6.007000000     4.535000000    -2.752000000
H    -6.157000000     4.373000000    -3.683000000
H    -5.166000000     4.116000000    -2.568000000
O    -0.335000000     6.795000000    -0.129000000
H    -1.246000000     6.656000000     0.129000000
H    -0.099000000     7.632000000     0.270000000
O    -0.379000000     8.147000000    -5.018000000
H    -0.603000000     9.009000000    -4.666000000
H    -0.481000000     7.552000000    -4.275000000
O     1.779000000     4.089000000    -6.827000000
H     0.998000000     3.642000000    -6.503000000
H     1.965000000     4.756000000    -6.166000000
O    -3.929000000     6.816000000    -3.759000000
H    -4.093000000     5.952000000    -3.382000000
H    -3.598000000     6.635000000    -4.639000000
O    -0.921000000     6.057000000    -3.310000000
H    -0.601000000     6.341000000    -2.453000000
H    -1.795000000     5.707000000    -3.136000000
O    -3.767000000     2.336000000    -6.364000000
H    -4.619000000     2.765000000    -6.279000000
H    -3.401000000     2.353000000    -5.480000000
O    -3.154000000     6.693000000    -0.662000000
H    -2.782000000     7.354000000    -1.245000000
H    -3.057000000     5.870000000    -1.140000000
O    -2.798000000     0.897000000    -8.751000000
H    -2.267000000     1.626000000    -9.072000000
H    -3.099000000     1.181000000    -7.888000000
O     1.224000000     3.266000000    -0.797000000
H     0.686000000     2.475000000    -0.777000000
H     0.656000000     3.951000000    -0.444000000
O    -5.946000000     0.418000000    -7.245000000
H    -5.636000000    -0.253000000    -6.637000000
H    -5.537000000     1.227000000    -6.938000000
O     1.125000000     4.429000000    -3.763000000
H     1.190000000     3.974000000    -2.923000000
H     0.296000000     4.905000000    -3.714000000
O    -4.003000000     9.355000000    -3.220000000
H    -3.214000000     9.351000000    -2.679000000
H    -4.066000000     8.462000000    -3.559000000
O    -6.111000000     7.126000000    -1.341000000
H    -6.133000000     6.184000000    -1.511000000
H    -5.253000000     7.279000000    -0.947000000
O    -0.842000000     3.027000000    -5.878000000
H    -1.328000000     2.493000000    -6.506000000
H    -1.494000000     3.285000000    -5.227000000
O    -6.322000000     2.927000000    -5.672000000
H    -6.990000000     2.592000000    -5.074000000
H    -6.752000000     3.647000000    -6.133000000
O    -2.409000000     5.784000000    -6.094000000
H    -1.911000000     5.038000000    -5.759000000
H    -1.758000000     6.478000000    -6.200000000
O     1.947000000     7.299000000    -1.351000000
H     2.090000000     7.937000000    -0.652000000
H     1.226000000     6.755000000    -1.034000000
O    -4.868000000     5.117000000    -7.837000000
H    -4.083000000     5.312000000    -7.325000000
H    -5.347000000     5.945000000    -7.866000000
