215
-1456.22740
C    -0.509000000     4.700000000     2.545000000
H     0.559000000     4.894000000     2.490000000
C    -0.963000000     3.440000000     2.938000000
C    -2.315000000     3.143000000     2.873000000
H    -2.745000000     2.156000000     3.019000000
C    -0.010000000     2.345000000     3.548000000
O     1.173000000     3.020000000     4.054000000
H     0.280000000     1.662000000     2.737000000
O    -0.692000000     1.584000000     4.563000000
C    -0.556000000     0.213000000     4.555000000
C    -1.636000000    -0.524000000     4.112000000
H    -2.542000000    -0.051000000     3.742000000
C    -1.446000000    -1.930000000     3.998000000
O    -2.511000000    -2.641000000     3.498000000
C    -0.165000000    -2.500000000     4.258000000
C     0.137000000    -3.944000000     3.979000000
H     1.000000000    -4.245000000     4.576000000
C     0.393000000    -4.144000000     2.504000000
C     1.700000000    -4.028000000     2.073000000
H     2.429000000    -3.823000000     2.852000000
H    -0.719000000    -4.542000000     4.298000000
C     0.962000000    -1.694000000     4.609000000
H     1.965000000    -2.109000000     4.573000000
C     0.725000000    -0.330000000     4.863000000
C     1.828000000     0.548000000     5.288000000
H     2.458000000     0.051000000     6.029000000
H     1.485000000     1.368000000     5.922000000
C     2.712000000     1.130000000     4.153000000
C     3.733000000     0.406000000     3.516000000
H     3.983000000    -0.605000000     3.828000000
C     2.340000000     2.416000000     3.672000000
C     2.948000000     2.936000000     2.500000000
H     2.473000000     3.798000000     2.040000000
C     3.997000000     2.272000000     1.899000000
O     4.337000000     2.668000000     0.614000000
C     3.923000000     1.972000000    -0.525000000
C     3.396000000     2.793000000    -1.736000000
C     3.911000000     2.600000000    -2.968000000
H     4.632000000     1.811000000    -3.165000000
C     2.443000000     3.745000000    -1.522000000
H     2.071000000     3.951000000    -0.522000000
O     5.004000000     1.058000000    -0.915000000
H     3.010000000     1.399000000    -0.308000000
C     4.373000000     0.983000000     2.381000000
C     5.495000000     0.140000000     1.736000000
H     6.029000000    -0.480000000     2.459000000
H     6.149000000     0.867000000     1.249000000
C     4.914000000    -0.760000000     0.665000000
C     4.551000000    -2.061000000     0.894000000
H     4.458000000    -2.402000000     1.922000000
C     4.803000000    -0.239000000    -0.584000000
C     4.249000000    -1.015000000    -1.632000000
H     4.025000000    -0.554000000    -2.590000000
C     3.821000000    -2.358000000    -1.362000000
O     3.034000000    -2.994000000    -2.341000000
C     1.579000000    -3.196000000    -2.048000000
C     0.708000000    -2.937000000    -3.328000000
C     0.999000000    -1.841000000    -4.119000000
H     1.797000000    -1.142000000    -3.883000000
C    -0.458000000    -3.694000000    -3.572000000
H    -0.761000000    -4.478000000    -2.882000000
O     1.213000000    -4.530000000    -1.530000000
H     1.210000000    -2.408000000    -1.374000000
C     3.985000000    -2.918000000    -0.054000000
C     3.470000000    -4.269000000     0.309000000
H     4.153000000    -4.562000000     1.110000000
H     3.528000000    -5.068000000    -0.433000000
C     2.040000000    -4.276000000     0.744000000
C     1.007000000    -4.463000000    -0.209000000
C    -0.311000000    -4.361000000     0.133000000
H    -1.110000000    -4.527000000    -0.585000000
C    -0.593000000    -4.256000000     1.497000000
O    -1.883000000    -4.258000000     1.883000000
C    -2.482000000    -2.938000000     2.062000000
H    -1.816000000    -2.285000000     1.478000000
C    -3.918000000    -2.817000000     1.463000000
C    -4.604000000    -1.591000000     1.619000000
H    -4.105000000    -0.855000000     2.244000000
C    -4.364000000    -3.822000000     0.605000000
H    -3.671000000    -4.617000000     0.342000000
C    -5.514000000    -3.654000000    -0.120000000
O    -5.765000000    -4.486000000    -1.219000000
C    -6.269000000    -2.484000000     0.087000000
H    -7.118000000    -2.307000000    -0.568000000
C    -5.870000000    -1.472000000     0.995000000
O    -6.569000000    -0.321000000     1.060000000
C    -6.292000000     0.593000000     2.115000000
C    -5.738000000     1.838000000     1.698000000
H    -5.689000000     2.011000000     0.626000000
C    -6.440000000     0.303000000     3.483000000
H    -6.732000000    -0.699000000     3.789000000
C    -6.081000000     1.265000000     4.456000000
H    -6.096000000     1.017000000     5.514000000
C    -5.558000000     2.498000000     4.030000000
H    -5.241000000     3.191000000     4.805000000
C    -5.225000000     2.727000000     2.665000000
O    -4.593000000     3.868000000     2.305000000
C    -3.241000000     4.116000000     2.458000000
C    -2.776000000     5.372000000     2.060000000
H    -3.413000000     6.187000000     1.726000000
C    -1.413000000     5.708000000     2.154000000
O    -0.892000000     6.866000000     1.873000000
C     0.008000000     6.979000000     0.814000000
C     0.062000000     6.058000000    -0.231000000
H    -0.587000000     5.217000000    -0.001000000
C     0.763000000     8.124000000     0.860000000
H     0.843000000     8.731000000     1.758000000
C     1.433000000     8.537000000    -0.372000000
H     1.982000000     9.473000000    -0.431000000
C     1.531000000     7.584000000    -1.413000000
H     2.114000000     7.808000000    -2.303000000
C     0.924000000     6.322000000    -1.299000000
O     0.980000000     5.446000000    -2.401000000
C     1.939000000     4.484000000    -2.570000000
C     2.360000000     4.176000000    -3.862000000
H     2.113000000     4.707000000    -4.778000000
C     3.314000000     3.212000000    -4.032000000
O     3.700000000     2.877000000    -5.286000000
C     3.118000000     1.855000000    -5.950000000
C     2.013000000     1.176000000    -5.480000000
H     1.674000000     1.407000000    -4.473000000
C     3.640000000     1.536000000    -7.155000000
H     4.519000000     2.078000000    -7.495000000
C     3.011000000     0.589000000    -8.001000000
H     3.427000000     0.436000000    -8.993000000
C     1.813000000    -0.007000000    -7.646000000
H     1.186000000    -0.629000000    -8.279000000
C     1.353000000     0.255000000    -6.295000000
O     0.190000000    -0.325000000    -5.855000000
C     0.120000000    -1.476000000    -5.135000000
C    -1.019000000    -2.251000000    -5.373000000
H    -1.714000000    -1.934000000    -6.147000000
C    -1.380000000    -3.225000000    -4.505000000
O    -2.607000000    -3.803000000    -4.697000000
C    -3.105000000    -4.667000000    -3.755000000
C    -2.734000000    -6.013000000    -3.613000000
H    -1.981000000    -6.364000000    -4.314000000
C    -3.376000000    -6.814000000    -2.689000000
H    -3.106000000    -7.866000000    -2.646000000
C    -4.409000000    -6.351000000    -1.904000000
H    -4.948000000    -7.050000000    -1.269000000
C    -4.806000000    -5.023000000    -2.030000000
C    -4.143000000    -4.173000000    -2.957000000
H    -4.459000000    -3.150000000    -3.143000000
C    -1.798000000     0.977000000     0.027000000
H    -2.753000000     1.351000000     0.387000000
C    -0.973000000     0.268000000     0.855000000
H    -1.277000000     0.065000000     1.879000000
C     0.288000000    -0.177000000     0.471000000
H     0.852000000    -0.823000000     1.099000000
C     0.774000000     0.245000000    -0.779000000
H     1.799000000    -0.015000000    -1.027000000
C    -0.050000000     0.999000000    -1.623000000
H     0.339000000     1.263000000    -2.603000000
C    -1.366000000     1.328000000    -1.225000000
C    -2.102000000     2.322000000    -2.141000000
O    -1.544000000     2.698000000    -3.215000000
O    -3.157000000     2.788000000    -1.880000000
O    -1.227000000     4.443000000    -8.241000000
H    -1.351000000     5.390000000    -8.298000000
H    -1.339000000     4.242000000    -7.312000000
O    -0.751000000     4.636000000    -5.189000000
H    -0.547000000     5.344000000    -4.578000000
H    -0.469000000     3.841000000    -4.737000000
O    -3.051000000     5.318000000    -3.175000000
H    -2.694000000     4.946000000    -3.982000000
H    -2.698000000     4.764000000    -2.479000000
O    -7.871000000     3.397000000    -1.320000000
H    -7.051000000     3.876000000    -1.196000000
H    -8.537000000     4.080000000    -1.397000000
O    -7.577000000     3.787000000    -4.564000000
H    -6.810000000     3.343000000    -4.203000000
H    -7.364000000     3.922000000    -5.487000000
O    -5.196000000     2.252000000    -3.669000000
H    -4.575000000     2.648000000    -3.058000000
H    -4.671000000     2.040000000    -4.440000000
O    -4.620000000    -2.216000000    -5.738000000
H    -3.987000000    -2.891000000    -5.494000000
H    -5.190000000    -2.642000000    -6.378000000
O    -0.345000000     7.519000000    -4.315000000
H    -0.710000000     7.493000000    -3.431000000
H     0.422000000     8.087000000    -4.242000000
O    -2.167000000    -1.830000000    -1.317000000
H    -2.874000000    -1.271000000    -1.637000000
H    -1.447000000    -1.226000000    -1.135000000
O    -4.381000000     4.433000000    -6.443000000
H    -4.116000000     5.345000000    -6.568000000
H    -5.020000000     4.273000000    -7.138000000
O    -6.172000000     0.129000000    -5.866000000
H    -6.016000000     0.897000000    -5.317000000
H    -5.692000000    -0.576000000    -5.432000000
O    -2.771000000     8.138000000    -2.303000000
H    -2.681000000     7.185000000    -2.284000000
H    -2.956000000     8.380000000    -1.395000000
O    -3.782000000     7.133000000    -6.197000000
H    -4.032000000     7.932000000    -6.662000000
H    -3.564000000     7.428000000    -5.313000000
O    -3.271000000    -0.378000000    -7.427000000
H    -3.234000000     0.441000000    -6.933000000
H    -3.746000000    -0.982000000    -6.857000000
O    -3.114000000     1.948000000    -5.631000000
H    -2.602000000     2.099000000    -4.836000000
H    -3.301000000     2.825000000    -5.965000000
O    -5.685000000     6.267000000    -2.345000000
H    -5.496000000     5.561000000    -1.726000000
H    -5.168000000     6.050000000    -3.121000000
O     0.538000000     7.296000000    -6.946000000
H     0.310000000     7.221000000    -6.020000000
H    -0.299000000     7.228000000    -7.406000000
O    -7.647000000     0.722000000    -1.828000000
H    -6.928000000     0.782000000    -2.457000000
H    -7.809000000     1.628000000    -1.563000000
O    -5.346000000     4.204000000    -0.847000000
H    -5.377000000     4.143000000     0.108000000
H    -4.715000000     3.534000000    -1.109000000
