215
-1439.38574
C    -1.113000000     4.457000000     2.072000000
H    -0.099000000     4.561000000     1.694000000
C    -1.448000000     3.471000000     3.097000000
C    -2.802000000     3.200000000     3.420000000
H    -3.006000000     2.388000000     4.113000000
C    -0.376000000     2.441000000     3.433000000
O     0.917000000     3.031000000     3.750000000
H    -0.195000000     1.790000000     2.564000000
O    -0.777000000     1.491000000     4.451000000
C    -0.333000000     0.190000000     4.530000000
C    -1.344000000    -0.727000000     4.346000000
H    -2.346000000    -0.316000000     4.257000000
C    -1.124000000    -2.070000000     4.209000000
O    -2.085000000    -2.880000000     3.711000000
C     0.220000000    -2.581000000     4.262000000
C     0.550000000    -4.012000000     3.894000000
H     1.471000000    -4.240000000     4.435000000
C     0.743000000    -4.309000000     2.439000000
C     2.052000000    -4.218000000     1.935000000
H     2.953000000    -4.046000000     2.517000000
H    -0.268000000    -4.616000000     4.294000000
C     1.202000000    -1.663000000     4.613000000
H     2.258000000    -1.919000000     4.606000000
C     0.959000000    -0.270000000     4.729000000
C     1.986000000     0.785000000     5.051000000
H     2.793000000     0.380000000     5.664000000
H     1.430000000     1.552000000     5.595000000
C     2.597000000     1.371000000     3.784000000
C     3.680000000     0.737000000     3.182000000
H     4.041000000    -0.172000000     3.656000000
C     2.077000000     2.538000000     3.267000000
C     2.590000000     3.093000000     2.136000000
H     2.228000000     4.083000000     1.871000000
C     3.638000000     2.447000000     1.508000000
O     4.012000000     2.961000000     0.284000000
C     3.365000000     2.370000000    -0.828000000
C     3.036000000     3.343000000    -1.989000000
C     2.956000000     2.888000000    -3.302000000
H     3.252000000     1.864000000    -3.512000000
C     2.538000000     4.605000000    -1.774000000
H     2.549000000     5.008000000    -0.765000000
O     4.270000000     1.320000000    -1.230000000
H     2.434000000     1.926000000    -0.445000000
C     4.274000000     1.252000000     2.055000000
C     5.395000000     0.537000000     1.293000000
H     6.119000000     0.064000000     1.959000000
H     5.986000000     1.273000000     0.743000000
C     4.676000000    -0.459000000     0.346000000
C     4.527000000    -1.821000000     0.674000000
H     4.956000000    -2.253000000     1.574000000
C     4.203000000     0.005000000    -0.884000000
C     3.582000000    -0.893000000    -1.711000000
H     3.267000000    -0.497000000    -2.673000000
C     3.589000000    -2.261000000    -1.441000000
O     2.980000000    -3.169000000    -2.402000000
C     1.601000000    -3.523000000    -2.262000000
C     0.900000000    -3.308000000    -3.590000000
C     1.436000000    -2.551000000    -4.647000000
H     2.483000000    -2.261000000    -4.608000000
C    -0.438000000    -3.603000000    -3.625000000
H    -0.803000000    -4.316000000    -2.890000000
O     1.293000000    -4.800000000    -1.642000000
H     1.232000000    -2.654000000    -1.698000000
C     3.981000000    -2.751000000    -0.230000000
C     3.712000000    -4.191000000     0.060000000
H     4.523000000    -4.448000000     0.743000000
H     3.865000000    -4.899000000    -0.757000000
C     2.281000000    -4.430000000     0.593000000
C     1.185000000    -4.747000000    -0.298000000
C    -0.043000000    -4.774000000     0.238000000
H    -0.902000000    -5.018000000    -0.381000000
C    -0.325000000    -4.534000000     1.593000000
O    -1.623000000    -4.444000000     2.005000000
C    -2.128000000    -3.040000000     2.235000000
H    -1.468000000    -2.317000000     1.733000000
C    -3.515000000    -2.917000000     1.659000000
C    -4.315000000    -1.813000000     1.974000000
H    -3.987000000    -1.129000000     2.753000000
C    -3.849000000    -3.726000000     0.549000000
H    -3.270000000    -4.585000000     0.220000000
C    -4.985000000    -3.378000000    -0.178000000
O    -5.481000000    -4.156000000    -1.172000000
C    -5.839000000    -2.383000000     0.248000000
H    -6.773000000    -2.126000000    -0.245000000
C    -5.483000000    -1.541000000     1.303000000
O    -6.237000000    -0.399000000     1.656000000
C    -6.205000000     0.404000000     2.771000000
C    -5.699000000     1.684000000     2.537000000
H    -5.217000000     1.887000000     1.584000000
C    -6.572000000     0.077000000     4.078000000
H    -6.949000000    -0.935000000     4.194000000
C    -6.671000000     1.077000000     5.039000000
H    -7.261000000     0.916000000     5.938000000
C    -6.233000000     2.390000000     4.767000000
H    -6.308000000     3.227000000     5.456000000
C    -5.628000000     2.658000000     3.525000000
O    -5.114000000     3.918000000     3.217000000
C    -3.790000000     4.083000000     2.945000000
C    -3.472000000     5.182000000     2.142000000
H    -4.217000000     5.881000000     1.771000000
C    -2.140000000     5.311000000     1.654000000
O    -1.941000000     6.245000000     0.664000000
C    -0.712000000     6.724000000     0.223000000
C    -0.116000000     6.388000000    -1.008000000
H    -0.598000000     5.868000000    -1.831000000
C    -0.043000000     7.518000000     1.092000000
H    -0.606000000     7.853000000     1.959000000
C     1.212000000     8.052000000     0.788000000
H     1.681000000     8.659000000     1.558000000
C     1.788000000     7.747000000    -0.461000000
H     2.735000000     8.176000000    -0.778000000
C     1.098000000     6.923000000    -1.322000000
O     1.642000000     6.710000000    -2.526000000
C     2.076000000     5.409000000    -2.799000000
C     2.060000000     4.931000000    -4.149000000
H     1.651000000     5.578000000    -4.921000000
C     2.477000000     3.674000000    -4.393000000
O     2.344000000     3.096000000    -5.683000000
C     2.768000000     1.824000000    -5.999000000
C     1.788000000     0.850000000    -6.186000000
H     0.753000000     1.089000000    -5.957000000
C     4.137000000     1.505000000    -6.167000000
H     4.876000000     2.289000000    -6.029000000
C     4.459000000     0.168000000    -6.549000000
H     5.527000000    -0.036000000    -6.544000000
C     3.501000000    -0.807000000    -6.820000000
H     3.711000000    -1.795000000    -7.224000000
C     2.131000000    -0.456000000    -6.645000000
O     1.173000000    -1.426000000    -6.846000000
C     0.671000000    -2.196000000    -5.792000000
C    -0.720000000    -2.498000000    -5.774000000
H    -1.383000000    -2.222000000    -6.590000000
C    -1.204000000    -3.339000000    -4.735000000
O    -2.553000000    -3.802000000    -4.849000000
C    -3.201000000    -4.631000000    -4.012000000
C    -2.858000000    -5.987000000    -3.868000000
H    -2.217000000    -6.384000000    -4.651000000
C    -3.402000000    -6.684000000    -2.852000000
H    -3.171000000    -7.723000000    -2.634000000
C    -4.379000000    -6.101000000    -2.048000000
H    -4.726000000    -6.558000000    -1.125000000
C    -4.691000000    -4.721000000    -2.109000000
C    -4.053000000    -3.982000000    -3.148000000
H    -4.242000000    -2.916000000    -3.243000000
C    -2.711000000     0.802000000    -0.240000000
H    -3.467000000     0.079000000     0.055000000
C    -1.418000000     0.559000000     0.272000000
H    -1.143000000    -0.249000000     0.946000000
C    -0.368000000     1.383000000    -0.030000000
H     0.551000000     1.123000000     0.522000000
C    -0.497000000     2.470000000    -0.796000000
H     0.350000000     3.148000000    -0.868000000
C    -1.756000000     2.843000000    -1.233000000
H    -1.889000000     3.740000000    -1.832000000
C    -2.861000000     2.010000000    -0.987000000
C    -4.231000000     2.490000000    -1.561000000
O    -4.284000000     3.545000000    -2.191000000
O    -5.235000000     1.861000000    -1.322000000
O    -6.497000000     6.432000000    -4.546000000
H    -5.830000000     6.993000000    -4.149000000
H    -6.388000000     6.560000000    -5.488000000
O    -0.655000000     3.688000000    -4.877000000
H     0.053000000     4.064000000    -5.401000000
H    -1.294000000     4.396000000    -4.794000000
O    -4.136000000     6.305000000    -1.166000000
H    -3.538000000     6.075000000    -0.455000000
H    -4.011000000     5.614000000    -1.817000000
O    -1.840000000     1.086000000    -5.203000000
H    -1.038000000     0.617000000    -4.972000000
H    -1.722000000     1.961000000    -4.833000000
O    -8.618000000     3.581000000     1.406000000
H    -7.864000000     3.975000000     0.966000000
H    -8.454000000     2.639000000     1.366000000
O    -9.090000000     2.966000000    -1.562000000
H    -9.375000000     3.320000000    -0.720000000
H    -8.682000000     3.708000000    -2.008000000
O    -5.142000000    -0.566000000    -2.210000000
H    -4.333000000    -0.851000000    -1.786000000
H    -5.304000000     0.308000000    -1.854000000
O    -8.440000000     0.428000000    -1.557000000
H    -7.678000000     0.571000000    -2.118000000
H    -8.691000000     1.305000000    -1.266000000
O    -6.467000000     7.782000000    -0.931000000
H    -5.725000000     7.198000000    -1.090000000
H    -6.129000000     8.657000000    -1.122000000
O    -4.654000000     4.464000000    -4.824000000
H    -4.582000000     4.122000000    -3.933000000
H    -5.141000000     5.282000000    -4.729000000
O    -3.912000000    -0.689000000    -5.619000000
H    -3.830000000    -1.195000000    -4.810000000
H    -3.383000000     0.094000000    -5.466000000
O     0.302000000     1.260000000    -3.374000000
H     0.641000000     2.145000000    -3.508000000
H    -0.117000000     1.291000000    -2.514000000
O    -3.636000000     2.879000000    -6.847000000
H    -3.949000000     3.497000000    -6.186000000
H    -3.340000000     2.120000000    -6.344000000
O    -7.867000000     5.528000000    -2.318000000
H    -7.230000000     5.865000000    -2.948000000
H    -8.043000000     6.266000000    -1.736000000
O    -6.555000000    -1.221000000    -4.633000000
H    -5.992000000    -0.924000000    -3.918000000
H    -6.761000000    -0.425000000    -5.122000000
O    -2.317000000     5.629000000    -5.691000000
H    -3.183000000     5.220000000    -5.689000000
H    -2.462000000     6.492000000    -6.080000000
O    -8.981000000     0.700000000     1.107000000
H    -8.636000000     0.490000000     0.239000000
H    -8.960000000    -0.132000000     1.580000000
O    -6.903000000     2.088000000    -3.725000000
H    -6.871000000     2.947000000    -4.145000000
H    -6.253000000     2.140000000    -3.024000000
O    -6.197000000     4.467000000     0.187000000
H    -5.574000000     5.086000000    -0.195000000
H    -6.087000000     3.668000000    -0.328000000
