215
-1479.09665
C     0.122000000     4.581000000     2.311000000
H     1.105000000     4.532000000     1.850000000
C    -0.244000000     3.549000000     3.176000000
C    -1.511000000     3.451000000     3.697000000
H    -1.826000000     2.557000000     4.230000000
C     0.722000000     2.349000000     3.388000000
O     2.117000000     2.822000000     3.349000000
H     0.558000000     1.682000000     2.529000000
O     0.421000000     1.754000000     4.608000000
C     0.402000000     0.373000000     4.572000000
C    -0.848000000    -0.194000000     4.358000000
H    -1.789000000     0.350000000     4.355000000
C    -0.977000000    -1.597000000     4.162000000
O    -2.261000000    -1.984000000     3.778000000
C     0.188000000    -2.421000000     4.143000000
C     0.055000000    -3.924000000     4.053000000
H     0.921000000    -4.356000000     4.560000000
C     0.052000000    -4.306000000     2.569000000
C     1.225000000    -4.600000000     1.995000000
H     2.107000000    -4.653000000     2.628000000
H    -0.753000000    -4.430000000     4.585000000
C     1.468000000    -1.791000000     4.302000000
H     2.401000000    -2.348000000     4.322000000
C     1.532000000    -0.425000000     4.492000000
C     2.857000000     0.258000000     4.578000000
H     3.532000000    -0.481000000     5.016000000
H     2.950000000     1.084000000     5.286000000
C     3.428000000     0.737000000     3.304000000
C     4.233000000    -0.097000000     2.516000000
H     4.335000000    -1.148000000     2.772000000
C     3.141000000     2.029000000     2.765000000
C     3.728000000     2.437000000     1.564000000
H     3.506000000     3.437000000     1.199000000
C     4.578000000     1.598000000     0.874000000
O     4.877000000     1.959000000    -0.420000000
C     4.064000000     1.352000000    -1.502000000
C     3.610000000     2.370000000    -2.509000000
C     3.561000000     2.091000000    -3.879000000
H     4.007000000     1.165000000    -4.233000000
C     3.131000000     3.621000000    -2.049000000
H     3.132000000     3.880000000    -0.994000000
O     4.841000000     0.287000000    -2.075000000
H     3.179000000     0.865000000    -1.067000000
C     4.875000000     0.320000000     1.328000000
C     5.754000000    -0.651000000     0.583000000
H     6.294000000    -1.340000000     1.235000000
H     6.535000000    -0.087000000     0.069000000
C     4.834000000    -1.455000000    -0.308000000
C     4.220000000    -2.616000000     0.165000000
H     4.440000000    -2.827000000     1.209000000
C     4.601000000    -0.982000000    -1.615000000
C     3.711000000    -1.686000000    -2.483000000
H     3.490000000    -1.358000000    -3.495000000
C     3.038000000    -2.843000000    -1.962000000
O     1.995000000    -3.344000000    -2.660000000
C     0.640000000    -3.133000000    -2.121000000
C    -0.270000000    -2.677000000    -3.205000000
C     0.037000000    -1.630000000    -4.089000000
H     1.020000000    -1.167000000    -4.101000000
C    -1.537000000    -3.298000000    -3.288000000
H    -1.873000000    -4.109000000    -2.647000000
O     0.276000000    -4.396000000    -1.487000000
H     0.585000000    -2.322000000    -1.380000000
C     3.303000000    -3.326000000    -0.659000000
C     2.761000000    -4.637000000    -0.023000000
H     3.421000000    -5.063000000     0.736000000
H     2.697000000    -5.431000000    -0.771000000
C     1.413000000    -4.517000000     0.596000000
C     0.250000000    -4.503000000    -0.115000000
C    -1.018000000    -4.568000000     0.433000000
H    -1.910000000    -4.544000000    -0.188000000
C    -1.131000000    -4.476000000     1.824000000
O    -2.300000000    -4.037000000     2.380000000
C    -2.383000000    -2.554000000     2.428000000
H    -1.615000000    -2.147000000     1.754000000
C    -3.778000000    -2.124000000     1.850000000
C    -4.257000000    -0.794000000     1.935000000
H    -3.682000000    -0.028000000     2.449000000
C    -4.572000000    -3.005000000     1.061000000
H    -4.195000000    -3.987000000     0.787000000
C    -5.797000000    -2.606000000     0.549000000
O    -6.492000000    -3.393000000    -0.335000000
C    -6.332000000    -1.321000000     0.805000000
H    -7.249000000    -0.941000000     0.360000000
C    -5.570000000    -0.389000000     1.514000000
O    -5.973000000     0.945000000     1.696000000
C    -5.685000000     1.691000000     2.866000000
C    -4.795000000     2.757000000     2.816000000
H    -4.426000000     3.174000000     1.882000000
C    -6.098000000     1.154000000     4.058000000
H    -6.714000000     0.259000000     4.046000000
C    -5.763000000     1.752000000     5.281000000
H    -6.205000000     1.359000000     6.194000000
C    -5.009000000     2.945000000     5.235000000
H    -4.856000000     3.567000000     6.113000000
C    -4.467000000     3.406000000     3.998000000
O    -3.682000000     4.519000000     3.930000000
C    -2.378000000     4.502000000     3.527000000
C    -2.007000000     5.625000000     2.745000000
H    -2.702000000     6.452000000     2.628000000
C    -0.744000000     5.658000000     2.131000000
O    -0.387000000     6.709000000     1.329000000
C     0.813000000     6.706000000     0.663000000
C     0.961000000     6.007000000    -0.543000000
H     0.168000000     5.369000000    -0.922000000
C     1.778000000     7.578000000     1.141000000
H     1.593000000     8.054000000     2.100000000
C     3.029000000     7.709000000     0.493000000
H     3.866000000     8.274000000     0.895000000
C     3.121000000     7.135000000    -0.787000000
H     3.901000000     7.333000000    -1.518000000
C     2.068000000     6.330000000    -1.260000000
O     2.131000000     5.848000000    -2.569000000
C     2.643000000     4.565000000    -2.956000000
C     2.590000000     4.322000000    -4.311000000
H     2.174000000     5.009000000    -5.043000000
C     2.999000000     3.046000000    -4.746000000
O     2.974000000     2.753000000    -6.083000000
C     2.484000000     1.572000000    -6.588000000
C     1.183000000     1.237000000    -6.231000000
H     0.685000000     1.983000000    -5.618000000
C     3.298000000     0.681000000    -7.275000000
H     4.345000000     0.877000000    -7.495000000
C     2.749000000    -0.609000000    -7.465000000
H     3.393000000    -1.364000000    -7.909000000
C     1.456000000    -0.968000000    -7.052000000
H     1.097000000    -1.961000000    -7.311000000
C     0.685000000    -0.012000000    -6.372000000
O    -0.644000000    -0.217000000    -5.925000000
C    -0.924000000    -1.214000000    -4.973000000
C    -2.223000000    -1.760000000    -4.960000000
H    -2.940000000    -1.474000000    -5.726000000
C    -2.501000000    -2.842000000    -4.165000000
O    -3.710000000    -3.503000000    -4.241000000
C    -4.399000000    -4.245000000    -3.281000000
C    -4.605000000    -5.615000000    -3.369000000
H    -4.375000000    -6.198000000    -4.257000000
C    -5.433000000    -6.232000000    -2.417000000
H    -5.674000000    -7.276000000    -2.595000000
C    -6.160000000    -5.541000000    -1.430000000
H    -6.924000000    -6.037000000    -0.836000000
C    -5.840000000    -4.194000000    -1.302000000
C    -5.108000000    -3.559000000    -2.337000000
H    -4.948000000    -2.489000000    -2.228000000
C    -1.308000000     1.518000000     0.410000000
H    -1.945000000     1.790000000     1.249000000
C    -0.462000000     0.431000000     0.524000000
H    -0.419000000    -0.009000000     1.517000000
C     0.447000000     0.090000000    -0.457000000
H     1.165000000    -0.738000000    -0.223000000
C     0.446000000     0.862000000    -1.618000000
H     1.197000000     0.663000000    -2.379000000
C    -0.437000000     1.896000000    -1.821000000
H    -0.373000000     2.420000000    -2.772000000
C    -1.290000000     2.336000000    -0.768000000
C    -2.156000000     3.556000000    -0.911000000
O    -2.001000000     4.190000000    -1.921000000
O    -2.932000000     3.908000000    -0.022000000
O    -2.775000000     1.392000000    -6.637000000
H    -2.336000000     2.238000000    -6.549000000
H    -2.274000000     0.803000000    -6.073000000
O    -2.030000000     3.978000000    -5.947000000
H    -2.763000000     4.594000000    -5.945000000
H    -1.289000000     4.487000000    -5.616000000
O    -0.378000000     5.198000000    -4.293000000
H     0.425000000     5.572000000    -3.930000000
H    -0.944000000     5.064000000    -3.533000000
O    -6.938000000     5.177000000    -2.253000000
H    -6.766000000     4.708000000    -1.437000000
H    -7.298000000     4.513000000    -2.840000000
O    -3.394000000     9.254000000    -1.831000000
H    -3.177000000     9.385000000    -0.908000000
H    -3.131000000     8.352000000    -2.013000000
O    -8.310000000     3.108000000     0.957000000
H    -8.644000000     2.243000000     1.194000000
H    -7.770000000     2.952000000     0.182000000
O    -1.007000000     8.315000000    -4.418000000
H    -1.431000000     7.581000000    -3.973000000
H    -0.071000000     8.127000000    -4.349000000
O    -7.620000000     3.036000000    -3.592000000
H    -6.703000000     2.762000000    -3.589000000
H    -8.050000000     2.441000000    -2.979000000
O    -2.441000000     6.796000000    -2.625000000
H    -2.960000000     6.529000000    -3.384000000
H    -2.232000000     5.976000000    -2.177000000
O    -4.244000000     5.343000000    -4.431000000
H    -4.861000000     5.706000000    -5.065000000
H    -4.721000000     4.624000000    -4.017000000
O    -3.297000000    -0.046000000    -1.882000000
H    -2.360000000    -0.199000000    -1.760000000
H    -3.342000000     0.708000000    -2.471000000
O    -6.212000000     0.378000000    -1.798000000
H    -6.342000000    -0.325000000    -2.434000000
H    -5.279000000     0.344000000    -1.589000000
O    -3.836000000     6.387000000     0.140000000
H    -4.244000000     6.374000000    -0.726000000
H    -3.489000000     5.503000000     0.255000000
O    -5.504000000     1.400000000    -4.974000000
H    -4.764000000     1.641000000    -4.416000000
H    -5.681000000     0.485000000    -4.755000000
O    -6.236000000     7.041000000     0.976000000
H    -6.145000000     7.939000000     1.292000000
H    -5.336000000     6.735000000     0.863000000
O    -3.317000000     2.243000000    -3.522000000
H    -2.946000000     2.516000000    -4.362000000
H    -2.961000000     2.867000000    -2.889000000
O    -6.763000000     7.681000000    -3.344000000
H    -6.447000000     7.465000000    -4.221000000
H    -6.567000000     6.903000000    -2.821000000
O    -5.496000000     3.412000000    -0.508000000
H    -5.384000000     2.462000000    -0.514000000
H    -4.604000000     3.759000000    -0.480000000
O    -2.539000000     8.760000000     0.812000000
H    -3.159000000     8.039000000     0.702000000
H    -1.698000000     8.397000000     0.535000000
