215
-1429.18791
C    -1.228000000     4.396000000     1.789000000
H    -0.240000000     4.673000000     1.429000000
C    -1.486000000     3.313000000     2.597000000
C    -2.788000000     2.957000000     2.902000000
H    -3.006000000     2.222000000     3.673000000
C    -0.248000000     2.475000000     3.106000000
O     0.929000000     3.240000000     3.239000000
H    -0.075000000     1.729000000     2.316000000
O    -0.593000000     1.768000000     4.346000000
C    -0.183000000     0.457000000     4.453000000
C    -1.179000000    -0.508000000     4.287000000
H    -2.188000000    -0.222000000     4.004000000
C    -0.820000000    -1.793000000     4.413000000
O    -1.823000000    -2.617000000     4.096000000
C     0.481000000    -2.209000000     4.522000000
C     0.866000000    -3.616000000     4.231000000
H     1.836000000    -3.880000000     4.659000000
C     1.015000000    -3.936000000     2.725000000
C     2.279000000    -3.881000000     2.147000000
H     3.040000000    -3.656000000     2.890000000
H     0.095000000    -4.298000000     4.594000000
C     1.499000000    -1.231000000     4.698000000
H     2.528000000    -1.543000000     4.856000000
C     1.119000000     0.135000000     4.736000000
C     2.119000000     1.242000000     5.055000000
H     2.953000000     0.886000000     5.664000000
H     1.565000000     2.007000000     5.605000000
C     2.737000000     1.691000000     3.733000000
C     3.843000000     1.045000000     3.153000000
H     4.461000000     0.260000000     3.581000000
C     2.097000000     2.682000000     3.006000000
C     2.665000000     3.183000000     1.797000000
H     2.268000000     4.026000000     1.236000000
C     3.686000000     2.528000000     1.199000000
O     4.117000000     2.960000000    -0.038000000
C     3.528000000     2.274000000    -1.179000000
C     3.047000000     3.221000000    -2.362000000
C     2.966000000     2.612000000    -3.665000000
H     3.264000000     1.593000000    -3.896000000
C     2.633000000     4.531000000    -2.101000000
H     2.620000000     4.945000000    -1.096000000
O     4.649000000     1.390000000    -1.641000000
H     2.671000000     1.693000000    -0.806000000
C     4.283000000     1.485000000     1.868000000
C     5.407000000     0.725000000     1.195000000
H     5.955000000     0.146000000     1.942000000
H     6.178000000     1.453000000     0.935000000
C     4.941000000    -0.268000000     0.114000000
C     4.738000000    -1.638000000     0.511000000
H     4.824000000    -1.880000000     1.567000000
C     4.632000000     0.111000000    -1.170000000
C     4.061000000    -0.831000000    -2.039000000
H     3.815000000    -0.594000000    -3.071000000
C     3.866000000    -2.109000000    -1.682000000
O     2.997000000    -2.786000000    -2.495000000
C     1.563000000    -2.975000000    -2.177000000
C     0.642000000    -2.896000000    -3.331000000
C     0.950000000    -2.115000000    -4.466000000
H     1.923000000    -1.653000000    -4.618000000
C    -0.571000000    -3.543000000    -3.302000000
H    -0.896000000    -4.028000000    -2.386000000
O     1.382000000    -4.243000000    -1.413000000
H     1.293000000    -2.205000000    -1.439000000
C     4.208000000    -2.528000000    -0.387000000
C     3.880000000    -3.890000000     0.245000000
H     4.648000000    -4.201000000     0.957000000
H     4.017000000    -4.635000000    -0.541000000
C     2.426000000    -3.991000000     0.776000000
C     1.309000000    -4.243000000    -0.017000000
C     0.046000000    -4.403000000     0.574000000
H    -0.880000000    -4.623000000     0.049000000
C    -0.095000000    -4.209000000     1.953000000
O    -1.398000000    -4.235000000     2.407000000
C    -1.944000000    -2.973000000     2.672000000
H    -1.341000000    -2.195000000     2.180000000
C    -3.358000000    -2.837000000     2.016000000
C    -4.343000000    -1.927000000     2.545000000
H    -4.034000000    -1.360000000     3.420000000
C    -3.690000000    -3.597000000     0.911000000
H    -2.943000000    -4.288000000     0.530000000
C    -4.963000000    -3.668000000     0.375000000
O    -5.255000000    -4.569000000    -0.592000000
C    -5.912000000    -2.783000000     0.827000000
H    -6.918000000    -2.723000000     0.421000000
C    -5.549000000    -1.901000000     1.897000000
O    -6.463000000    -1.047000000     2.395000000
C    -6.341000000     0.076000000     3.112000000
C    -5.714000000     1.233000000     2.586000000
H    -5.354000000     1.156000000     1.563000000
C    -6.823000000     0.152000000     4.420000000
H    -7.236000000    -0.748000000     4.867000000
C    -6.604000000     1.326000000     5.232000000
H    -6.971000000     1.486000000     6.242000000
C    -6.028000000     2.413000000     4.625000000
H    -5.811000000     3.284000000     5.238000000
C    -5.594000000     2.431000000     3.316000000
O    -5.140000000     3.537000000     2.750000000
C    -3.809000000     3.717000000     2.313000000
C    -3.554000000     4.837000000     1.585000000
H    -4.349000000     5.534000000     1.333000000
C    -2.282000000     5.150000000     1.305000000
O    -2.008000000     6.280000000     0.586000000
C    -0.752000000     6.706000000     0.136000000
C    -0.383000000     6.461000000    -1.172000000
H    -1.008000000     5.818000000    -1.786000000
C     0.100000000     7.500000000     0.922000000
H    -0.230000000     7.793000000     1.915000000
C     1.249000000     8.026000000     0.364000000
H     1.868000000     8.754000000     0.883000000
C     1.636000000     7.627000000    -0.861000000
H     2.548000000     8.023000000    -1.302000000
C     0.857000000     6.838000000    -1.611000000
O     1.229000000     6.442000000    -2.911000000
C     1.915000000     5.251000000    -3.054000000
C     1.809000000     4.631000000    -4.332000000
H     1.270000000     5.052000000    -5.176000000
C     2.372000000     3.360000000    -4.667000000
O     2.484000000     2.909000000    -6.000000000
C     2.466000000     1.645000000    -6.500000000
C     1.317000000     0.896000000    -6.344000000
H     0.428000000     1.309000000    -5.875000000
C     3.587000000     1.107000000    -7.102000000
H     4.484000000     1.718000000    -7.163000000
C     3.594000000    -0.224000000    -7.526000000
H     4.500000000    -0.576000000    -8.011000000
C     2.479000000    -1.046000000    -7.336000000
H     2.463000000    -2.085000000    -7.656000000
C     1.351000000    -0.469000000    -6.736000000
O     0.223000000    -1.186000000    -6.608000000
C    -0.018000000    -1.961000000    -5.520000000
C    -1.184000000    -2.726000000    -5.523000000
H    -1.838000000    -2.826000000    -6.385000000
C    -1.423000000    -3.597000000    -4.414000000
O    -2.495000000    -4.455000000    -4.511000000
C    -2.979000000    -5.082000000    -3.414000000
C    -2.611000000    -6.399000000    -3.246000000
H    -1.909000000    -6.805000000    -3.970000000
C    -3.156000000    -7.214000000    -2.223000000
H    -2.797000000    -8.211000000    -1.980000000
C    -4.058000000    -6.568000000    -1.343000000
H    -4.477000000    -7.219000000    -0.580000000
C    -4.413000000    -5.223000000    -1.483000000
C    -3.821000000    -4.483000000    -2.540000000
H    -4.160000000    -3.451000000    -2.571000000
C    -2.290000000     0.078000000    -0.291000000
H    -3.187000000    -0.535000000    -0.304000000
C    -1.092000000    -0.549000000    -0.200000000
H    -1.184000000    -1.628000000    -0.294000000
C     0.071000000     0.267000000    -0.223000000
H     1.019000000    -0.218000000    -0.138000000
C    -0.065000000     1.658000000    -0.242000000
H     0.783000000     2.338000000    -0.244000000
C    -1.310000000     2.238000000    -0.368000000
H    -1.459000000     3.312000000    -0.443000000
C    -2.420000000     1.466000000    -0.429000000
C    -3.767000000     2.075000000    -0.847000000
O    -3.778000000     3.106000000    -1.434000000
O    -4.866000000     1.536000000    -0.774000000
O    -8.026000000    -1.771000000    -3.817000000
H    -8.119000000    -1.537000000    -2.894000000
H    -8.738000000    -1.305000000    -4.255000000
O    -2.569000000     6.593000000    -3.780000000
H    -3.167000000     6.419000000    -4.506000000
H    -2.765000000     7.493000000    -3.519000000
O    -2.289000000     2.973000000    -3.767000000
H    -2.786000000     3.193000000    -2.980000000
H    -2.467000000     3.693000000    -4.372000000
O    -4.386000000     5.670000000    -1.550000000
H    -3.674000000     6.175000000    -1.942000000
H    -4.086000000     4.762000000    -1.590000000
O    -2.619000000     0.649000000    -6.238000000
H    -3.027000000    -0.210000000    -6.347000000
H    -2.397000000     0.693000000    -5.308000000
O    -8.475000000     4.425000000     1.500000000
H    -9.198000000     3.798000000     1.513000000
H    -7.761000000     3.958000000     1.066000000
O    -6.857000000     4.560000000    -4.968000000
H    -6.568000000     3.910000000    -4.327000000
H    -7.344000000     5.204000000    -4.453000000
O    -6.028000000    -0.370000000    -1.848000000
H    -6.858000000    -0.372000000    -1.370000000
H    -5.498000000     0.291000000    -1.403000000
O    -8.031000000     6.200000000    -3.112000000
H    -7.476000000     6.287000000    -2.337000000
H    -8.177000000     7.099000000    -3.405000000
O    -4.421000000     5.480000000    -5.569000000
H    -5.226000000     5.008000000    -5.778000000
H    -3.748000000     5.052000000    -6.099000000
O    -0.982000000     0.246000000    -3.301000000
H    -1.353000000     1.100000000    -3.524000000
H    -1.116000000     0.167000000    -2.356000000
O    -4.688000000     2.482000000    -6.381000000
H    -4.774000000     2.808000000    -5.485000000
H    -3.910000000     1.924000000    -6.359000000
O    -5.678000000    -1.388000000    -5.146000000
H    -5.015000000    -1.150000000    -4.497000000
H    -6.420000000    -1.698000000    -4.627000000
O    -8.806000000    -0.083000000    -1.628000000
H    -9.297000000    -0.366000000    -0.856000000
H    -9.450000000     0.380000000    -2.164000000
O    -3.459000000    -0.799000000    -3.582000000
H    -3.686000000    -0.912000000    -2.659000000
H    -2.507000000    -0.901000000    -3.609000000
O    -6.812000000     7.428000000    -0.805000000
H    -6.070000000     6.896000000    -1.094000000
H    -6.693000000     7.511000000     0.141000000
O    -8.694000000     2.594000000    -1.172000000
H    -7.852000000     3.002000000    -0.969000000
H    -8.475000000     1.686000000    -1.384000000
O    -5.713000000     2.357000000    -3.179000000
H    -5.778000000     1.438000000    -2.920000000
H    -4.996000000     2.706000000    -2.650000000
O    -6.281000000     3.620000000    -0.136000000
H    -5.715000000     3.967000000     0.554000000
H    -5.743000000     2.965000000    -0.580000000
