215
-1440.23869
C    -1.473000000     4.855000000     1.349000000
H    -0.432000000     5.119000000     1.181000000
C    -1.886000000     3.888000000     2.308000000
C    -3.213000000     3.495000000     2.336000000
H    -3.419000000     2.598000000     2.914000000
C    -0.817000000     3.070000000     3.065000000
O     0.356000000     3.808000000     3.344000000
H    -0.594000000     2.240000000     2.379000000
O    -1.310000000     2.549000000     4.334000000
C    -1.010000000     1.295000000     4.560000000
C    -1.939000000     0.305000000     4.328000000
H    -2.896000000     0.537000000     3.868000000
C    -1.596000000    -1.010000000     4.254000000
O    -2.609000000    -1.859000000     3.615000000
C    -0.330000000    -1.475000000     4.586000000
C    -0.003000000    -2.885000000     4.727000000
H     0.688000000    -3.170000000     5.523000000
C     0.509000000    -3.449000000     3.380000000
C     1.837000000    -3.254000000     3.003000000
H     2.518000000    -2.781000000     3.706000000
H    -0.966000000    -3.322000000     4.999000000
C     0.585000000    -0.531000000     4.930000000
H     1.588000000    -0.885000000     5.157000000
C     0.291000000     0.842000000     4.915000000
C     1.410000000     1.794000000     5.223000000
H     2.094000000     1.395000000     5.975000000
H     1.064000000     2.711000000     5.704000000
C     2.062000000     2.150000000     3.918000000
C     3.153000000     1.394000000     3.509000000
H     3.535000000     0.630000000     4.180000000
C     1.521000000     3.213000000     3.153000000
C     2.201000000     3.491000000     1.997000000
H     1.856000000     4.366000000     1.451000000
C     3.244000000     2.719000000     1.552000000
O     3.843000000     3.053000000     0.397000000
C     3.796000000     2.217000000    -0.748000000
C     3.525000000     2.852000000    -2.083000000
C     3.881000000     2.123000000    -3.223000000
H     4.443000000     1.198000000    -3.124000000
C     2.754000000     3.953000000    -2.092000000
H     2.436000000     4.360000000    -1.136000000
O     4.958000000     1.343000000    -0.892000000
H     3.033000000     1.440000000    -0.594000000
C     3.843000000     1.681000000     2.345000000
C     5.168000000     1.054000000     2.035000000
H     5.555000000     0.608000000     2.953000000
H     5.850000000     1.786000000     1.596000000
C     4.884000000    -0.119000000     1.036000000
C     4.545000000    -1.393000000     1.530000000
H     4.551000000    -1.499000000     2.612000000
C     4.650000000     0.095000000    -0.327000000
C     4.322000000    -0.996000000    -1.160000000
H     4.362000000    -0.873000000    -2.240000000
C     4.028000000    -2.286000000    -0.620000000
O     3.421000000    -3.188000000    -1.469000000
C     1.975000000    -3.305000000    -1.333000000
C     1.331000000    -3.486000000    -2.679000000
C     1.701000000    -2.699000000    -3.764000000
H     2.653000000    -2.176000000    -3.735000000
C     0.076000000    -4.113000000    -2.812000000
H    -0.388000000    -4.593000000    -1.955000000
O     1.668000000    -4.343000000    -0.463000000
H     1.617000000    -2.327000000    -0.981000000
C     4.146000000    -2.451000000     0.725000000
C     3.798000000    -3.761000000     1.436000000
H     4.464000000    -3.886000000     2.292000000
H     4.068000000    -4.682000000     0.915000000
C     2.322000000    -3.711000000     1.746000000
C     1.351000000    -4.131000000     0.872000000
C    -0.006000000    -4.220000000     1.165000000
H    -0.692000000    -4.392000000     0.339000000
C    -0.451000000    -3.885000000     2.436000000
O    -1.802000000    -3.736000000     2.646000000
C    -2.330000000    -2.502000000     2.317000000
H    -1.613000000    -1.795000000     1.875000000
C    -3.580000000    -2.556000000     1.480000000
C    -4.528000000    -1.492000000     1.418000000
H    -4.369000000    -0.569000000     1.969000000
C    -3.825000000    -3.691000000     0.693000000
H    -3.197000000    -4.575000000     0.768000000
C    -4.924000000    -3.748000000    -0.109000000
O    -5.267000000    -4.852000000    -0.805000000
C    -5.826000000    -2.674000000    -0.186000000
H    -6.696000000    -2.731000000    -0.835000000
C    -5.645000000    -1.499000000     0.571000000
O    -6.558000000    -0.467000000     0.396000000
C    -6.639000000     0.524000000     1.229000000
C    -5.915000000     1.714000000     1.143000000
H    -5.222000000     1.798000000     0.310000000
C    -7.645000000     0.368000000     2.182000000
H    -8.163000000    -0.587000000     2.211000000
C    -7.884000000     1.407000000     3.131000000
H    -8.671000000     1.265000000     3.867000000
C    -7.195000000     2.667000000     2.997000000
H    -7.463000000     3.506000000     3.633000000
C    -6.161000000     2.697000000     2.042000000
O    -5.534000000     3.946000000     1.852000000
C    -4.174000000     4.232000000     1.657000000
C    -3.764000000     5.114000000     0.695000000
H    -4.466000000     5.666000000     0.075000000
C    -2.439000000     5.438000000     0.491000000
O    -2.132000000     6.365000000    -0.497000000
C    -0.841000000     6.685000000    -0.900000000
C    -0.279000000     5.924000000    -1.941000000
H    -0.793000000     5.100000000    -2.429000000
C    -0.078000000     7.660000000    -0.210000000
H    -0.635000000     8.219000000     0.537000000
C     1.233000000     7.877000000    -0.571000000
H     1.901000000     8.614000000    -0.134000000
C     1.713000000     7.195000000    -1.647000000
H     2.723000000     7.468000000    -1.943000000
C     0.959000000     6.285000000    -2.361000000
O     1.602000000     5.609000000    -3.419000000
C     2.406000000     4.514000000    -3.279000000
C     2.785000000     3.802000000    -4.451000000
H     2.402000000     4.104000000    -5.423000000
C     3.585000000     2.682000000    -4.490000000
O     3.914000000     2.123000000    -5.692000000
C     3.887000000     0.764000000    -5.882000000
C     2.676000000     0.050000000    -5.941000000
H     1.742000000     0.561000000    -5.720000000
C     5.072000000     0.100000000    -6.236000000
H     5.972000000     0.666000000    -6.462000000
C     5.041000000    -1.253000000    -6.491000000
H     5.955000000    -1.716000000    -6.853000000
C     3.859000000    -2.035000000    -6.508000000
H     3.849000000    -3.097000000    -6.741000000
C     2.703000000    -1.320000000    -6.198000000
O     1.459000000    -2.031000000    -6.138000000
C     0.991000000    -2.656000000    -4.972000000
C    -0.155000000    -3.434000000    -5.128000000
H    -0.629000000    -3.467000000    -6.105000000
C    -0.613000000    -4.146000000    -3.984000000
O    -1.832000000    -4.838000000    -4.098000000
C    -2.485000000    -5.525000000    -3.118000000
C    -2.339000000    -6.884000000    -2.958000000
H    -1.575000000    -7.371000000    -3.558000000
C    -3.109000000    -7.628000000    -2.064000000
H    -2.934000000    -8.693000000    -1.933000000
C    -4.050000000    -6.876000000    -1.304000000
H    -4.655000000    -7.313000000    -0.515000000
C    -4.247000000    -5.514000000    -1.496000000
C    -3.451000000    -4.836000000    -2.418000000
H    -3.557000000    -3.758000000    -2.511000000
C    -1.364000000    -0.666000000    -1.833000000
H    -1.956000000    -1.533000000    -2.112000000
C    -0.563000000    -0.674000000    -0.733000000
H    -0.479000000    -1.612000000    -0.191000000
C    -0.005000000     0.513000000    -0.332000000
H     0.606000000     0.445000000     0.512000000
C    -0.141000000     1.705000000    -1.027000000
H     0.218000000     2.628000000    -0.578000000
C    -0.990000000     1.720000000    -2.048000000
H    -1.179000000     2.740000000    -2.375000000
C    -1.599000000     0.549000000    -2.526000000
C    -2.615000000     0.613000000    -3.599000000
O    -3.052000000     1.727000000    -3.927000000
O    -3.193000000    -0.420000000    -3.998000000
O    -0.213000000     2.580000000    -6.355000000
H    -0.830000000     1.985000000    -5.930000000
H    -0.721000000     3.374000000    -6.522000000
O    -3.699000000     4.080000000    -2.953000000
H    -4.496000000     3.846000000    -2.478000000
H    -3.388000000     3.252000000    -3.320000000
O    -8.310000000     0.084000000    -2.816000000
H    -7.471000000     0.524000000    -2.678000000
H    -8.862000000     0.747000000    -3.231000000
O    -6.680000000     4.157000000    -7.187000000
H    -6.531000000     5.013000000    -6.787000000
H    -6.277000000     3.535000000    -6.581000000
O    -6.966000000     4.606000000    -3.549000000
H    -7.058000000     5.184000000    -4.306000000
H    -7.863000000     4.458000000    -3.249000000
O    -4.512000000    -2.768000000    -4.669000000
H    -3.820000000    -2.116000000    -4.556000000
H    -5.305000000    -2.252000000    -4.815000000
O    -4.411000000     5.618000000    -5.069000000
H    -4.076000000     4.964000000    -4.455000000
H    -5.177000000     5.988000000    -4.631000000
O    -4.426000000     0.029000000    -8.596000000
H    -5.139000000     0.491000000    -9.037000000
H    -4.667000000    -0.895000000    -8.656000000
O    -7.319000000    -1.725000000    -5.566000000
H    -7.807000000    -1.797000000    -4.746000000
H    -7.483000000    -0.831000000    -5.865000000
O    -1.906000000    -0.215000000    -6.588000000
H    -2.665000000    -0.521000000    -7.083000000
H    -2.269000000     0.088000000    -5.756000000
O    -3.236000000     2.431000000    -8.088000000
H    -3.431000000     1.498000000    -8.173000000
H    -3.314000000     2.774000000    -8.978000000
O    -2.605000000    -3.463000000    -8.061000000
H    -3.406000000    -2.987000000    -8.283000000
H    -1.909000000    -2.810000000    -8.139000000
O    -0.536000000    -1.919000000    -8.654000000
H     0.362000000    -2.229000000    -8.538000000
H    -0.621000000    -1.192000000    -8.037000000
O    -6.039000000     3.220000000    -1.596000000
H    -6.014000000     2.299000000    -1.854000000
H    -6.262000000     3.689000000    -2.400000000
O    -7.441000000     0.902000000    -6.460000000
H    -7.866000000     1.343000000    -5.724000000
H    -6.509000000     1.084000000    -6.342000000
O    -4.916000000     2.211000000    -5.986000000
H    -4.440000000     2.395000000    -6.797000000
H    -4.240000000     1.920000000    -5.374000000
O    -4.677000000    -5.678000000    -5.320000000
H    -4.609000000    -4.749000000    -5.099000000
H    -3.937000000    -5.839000000    -5.906000000
O    -5.637000000     0.882000000    -2.839000000
H    -5.151000000     1.278000000    -3.563000000
H    -5.036000000     0.231000000    -2.476000000
O    -2.032000000     4.449000000    -6.619000000
H    -2.463000000     3.824000000    -7.202000000
H    -2.713000000     4.708000000    -5.998000000
