215
-1444.24621
C    -0.983000000     5.026000000     1.711000000
H     0.038000000     5.200000000     1.379000000
C    -1.246000000     3.963000000     2.533000000
C    -2.603000000     3.598000000     2.794000000
H    -2.821000000     2.772000000     3.466000000
C    -0.127000000     3.001000000     2.983000000
O     1.091000000     3.653000000     3.253000000
H     0.009000000     2.281000000     2.163000000
O    -0.570000000     2.306000000     4.143000000
C    -0.191000000     1.033000000     4.514000000
C    -1.241000000     0.070000000     4.299000000
H    -2.259000000     0.404000000     4.120000000
C    -0.970000000    -1.259000000     4.322000000
O    -1.959000000    -2.159000000     4.124000000
C     0.334000000    -1.710000000     4.646000000
C     0.649000000    -3.190000000     4.633000000
H     1.589000000    -3.337000000     5.169000000
C     0.852000000    -3.723000000     3.169000000
C     2.134000000    -3.827000000     2.569000000
H     3.045000000    -3.579000000     3.107000000
H    -0.100000000    -3.797000000     5.145000000
C     1.329000000    -0.768000000     4.996000000
H     2.291000000    -1.219000000     5.226000000
C     1.112000000     0.617000000     4.883000000
C     2.319000000     1.586000000     4.928000000
H     3.143000000     1.141000000     5.489000000
H     1.946000000     2.478000000     5.435000000
C     2.830000000     2.013000000     3.599000000
C     3.888000000     1.224000000     3.010000000
H     4.243000000     0.329000000     3.514000000
C     2.278000000     3.099000000     2.937000000
C     2.755000000     3.366000000     1.657000000
H     2.348000000     4.168000000     1.047000000
C     3.713000000     2.579000000     1.072000000
O     4.059000000     2.889000000    -0.269000000
C     3.625000000     1.908000000    -1.333000000
C     3.078000000     2.639000000    -2.601000000
C     3.301000000     2.136000000    -3.916000000
H     3.879000000     1.232000000    -4.086000000
C     2.260000000     3.760000000    -2.368000000
H     1.972000000     4.017000000    -1.352000000
O     4.604000000     0.904000000    -1.676000000
H     2.709000000     1.374000000    -1.040000000
C     4.264000000     1.499000000     1.716000000
C     5.299000000     0.587000000     1.074000000
H     5.908000000     0.252000000     1.916000000
H     5.987000000     1.106000000     0.403000000
C     4.722000000    -0.538000000     0.299000000
C     4.617000000    -1.768000000     0.831000000
H     4.808000000    -1.907000000     1.892000000
C     4.373000000    -0.311000000    -1.095000000
C     3.891000000    -1.335000000    -1.854000000
H     3.623000000    -1.356000000    -2.907000000
C     3.742000000    -2.532000000    -1.267000000
O     2.884000000    -3.349000000    -1.975000000
C     1.495000000    -3.415000000    -1.530000000
C     0.527000000    -3.324000000    -2.790000000
C     0.904000000    -2.532000000    -3.891000000
H     1.741000000    -1.854000000    -3.742000000
C    -0.566000000    -4.128000000    -2.933000000
H    -0.884000000    -4.634000000    -2.026000000
O     1.245000000    -4.690000000    -0.799000000
H     1.222000000    -2.571000000    -0.880000000
C     4.109000000    -2.835000000     0.007000000
C     3.652000000    -4.086000000     0.682000000
H     4.371000000    -4.364000000     1.456000000
H     3.607000000    -4.867000000    -0.079000000
C     2.288000000    -4.152000000     1.283000000
C     1.206000000    -4.554000000     0.589000000
C    -0.032000000    -4.585000000     1.178000000
H    -0.944000000    -4.798000000     0.626000000
C    -0.254000000    -4.113000000     2.434000000
O    -1.572000000    -4.055000000     2.835000000
C    -2.048000000    -2.674000000     2.780000000
H    -1.316000000    -2.158000000     2.141000000
C    -3.399000000    -2.562000000     2.040000000
C    -4.059000000    -1.293000000     2.040000000
H    -3.630000000    -0.446000000     2.569000000
C    -3.895000000    -3.595000000     1.252000000
H    -3.375000000    -4.549000000     1.208000000
C    -5.060000000    -3.374000000     0.434000000
O    -5.527000000    -4.384000000    -0.396000000
C    -5.692000000    -2.120000000     0.510000000
H    -6.561000000    -1.958000000    -0.122000000
C    -5.254000000    -1.131000000     1.301000000
O    -5.946000000     0.057000000     1.257000000
C    -5.921000000     0.942000000     2.273000000
C    -5.460000000     2.213000000     2.075000000
H    -5.155000000     2.499000000     1.071000000
C    -6.452000000     0.538000000     3.484000000
H    -6.896000000    -0.447000000     3.604000000
C    -6.455000000     1.456000000     4.523000000
H    -6.893000000     1.141000000     5.467000000
C    -5.914000000     2.694000000     4.380000000
H    -5.885000000     3.396000000     5.209000000
C    -5.382000000     3.072000000     3.172000000
O    -4.897000000     4.342000000     2.829000000
C    -3.592000000     4.475000000     2.383000000
C    -3.266000000     5.621000000     1.615000000
H    -4.036000000     6.329000000     1.319000000
C    -1.968000000     5.807000000     1.233000000
O    -1.771000000     6.961000000     0.482000000
C    -0.659000000     7.102000000    -0.385000000
C    -0.541000000     6.196000000    -1.430000000
H    -1.300000000     5.418000000    -1.464000000
C     0.345000000     8.031000000    -0.110000000
H     0.200000000     8.801000000     0.644000000
C     1.446000000     8.091000000    -0.951000000
H     2.262000000     8.714000000    -0.593000000
C     1.582000000     7.151000000    -1.944000000
H     2.505000000     7.115000000    -2.518000000
C     0.622000000     6.211000000    -2.233000000
O     0.737000000     5.353000000    -3.321000000
C     1.626000000     4.361000000    -3.457000000
C     1.959000000     3.916000000    -4.748000000
H     1.433000000     4.443000000    -5.539000000
C     2.792000000     2.829000000    -5.023000000
O     2.915000000     2.409000000    -6.321000000
C     2.666000000     1.066000000    -6.566000000
C     1.528000000     0.390000000    -6.144000000
H     0.756000000     0.853000000    -5.534000000
C     3.719000000     0.379000000    -7.147000000
H     4.585000000     0.972000000    -7.428000000
C     3.575000000    -0.999000000    -7.447000000
H     4.349000000    -1.647000000    -7.849000000
C     2.389000000    -1.653000000    -7.035000000
H     2.238000000    -2.673000000    -7.377000000
C     1.328000000    -0.920000000    -6.501000000
O     0.197000000    -1.563000000    -6.091000000
C     0.054000000    -2.503000000    -4.999000000
C    -1.078000000    -3.306000000    -5.067000000
H    -1.819000000    -3.167000000    -5.851000000
C    -1.346000000    -4.211000000    -4.071000000
O    -2.491000000    -4.937000000    -4.075000000
C    -3.101000000    -5.456000000    -3.008000000
C    -2.926000000    -6.818000000    -2.696000000
H    -2.238000000    -7.437000000    -3.267000000
C    -3.636000000    -7.346000000    -1.594000000
H    -3.481000000    -8.376000000    -1.282000000
C    -4.444000000    -6.486000000    -0.797000000
H    -4.916000000    -6.843000000     0.115000000
C    -4.627000000    -5.158000000    -1.134000000
C    -3.994000000    -4.613000000    -2.287000000
H    -4.093000000    -3.555000000    -2.514000000
C    -2.255000000    -0.073000000    -1.117000000
H    -3.080000000    -0.737000000    -1.364000000
C    -1.233000000    -0.577000000    -0.290000000
H    -1.223000000    -1.591000000     0.102000000
C    -0.238000000     0.291000000     0.171000000
H     0.450000000     0.021000000     0.952000000
C    -0.159000000     1.557000000    -0.352000000
H     0.723000000     2.173000000    -0.199000000
C    -1.131000000     2.030000000    -1.204000000
H    -1.010000000     3.005000000    -1.669000000
C    -2.197000000     1.245000000    -1.614000000
C    -3.087000000     1.690000000    -2.754000000
O    -2.734000000     2.591000000    -3.423000000
O    -4.163000000     1.083000000    -2.947000000
O    -8.092000000    -2.718000000    -3.083000000
H    -7.461000000    -2.052000000    -2.810000000
H    -8.560000000    -2.319000000    -3.816000000
O    -1.841000000     3.006000000    -5.693000000
H    -2.212000000     2.870000000    -4.822000000
H    -1.985000000     3.935000000    -5.872000000
O    -3.661000000     5.115000000    -3.455000000
H    -4.311000000     5.048000000    -4.155000000
H    -3.201000000     4.276000000    -3.474000000
O    -4.399000000     6.899000000    -1.631000000
H    -4.276000000     6.105000000    -2.150000000
H    -3.571000000     7.011000000    -1.163000000
O    -7.654000000     5.659000000     0.117000000
H    -8.524000000     5.414000000     0.431000000
H    -7.291000000     4.847000000    -0.239000000
O    -8.340000000     1.201000000    -4.843000000
H    -7.388000000     1.189000000    -4.941000000
H    -8.557000000     2.125000000    -4.721000000
O    -6.175000000    -0.374000000    -2.537000000
H    -6.730000000     0.242000000    -2.060000000
H    -5.337000000     0.080000000    -2.628000000
O    -0.723000000     1.686000000    -7.742000000
H    -0.754000000     0.847000000    -7.282000000
H    -0.843000000     2.341000000    -7.054000000
O    -8.567000000     3.893000000    -3.911000000
H    -8.622000000     3.491000000    -3.044000000
H    -8.475000000     4.829000000    -3.736000000
O    -5.233000000     4.069000000    -7.970000000
H    -4.783000000     3.243000000    -7.794000000
H    -5.325000000     4.093000000    -8.923000000
O    -5.897000000     4.851000000    -5.345000000
H    -6.160000000     3.972000000    -5.072000000
H    -5.574000000     4.737000000    -6.239000000
O    -4.273000000    -2.480000000    -7.354000000
H    -5.149000000    -2.146000000    -7.546000000
H    -4.271000000    -2.615000000    -6.406000000
O    -2.246000000     0.211000000    -5.156000000
H    -2.042000000     1.116000000    -4.923000000
H    -2.042000000    -0.292000000    -4.368000000
O    -4.008000000     1.715000000    -6.990000000
H    -3.118000000     1.597000000    -6.657000000
H    -4.070000000     1.109000000    -7.728000000
O    -4.330000000    -1.626000000    -4.460000000
H    -4.931000000    -1.240000000    -3.823000000
H    -3.938000000    -0.875000000    -4.906000000
O    -7.629000000     1.631000000    -1.231000000
H    -7.043000000     2.377000000    -1.359000000
H    -7.799000000     1.619000000    -0.290000000
O    -5.855000000     1.629000000    -4.929000000
H    -5.368000000     1.743000000    -5.745000000
H    -5.181000000     1.477000000    -4.267000000
O    -5.974000000     3.904000000    -1.640000000
H    -5.940000000     4.140000000    -2.567000000
H    -5.088000000     3.603000000    -1.437000000
O    -2.265000000     5.623000000    -6.727000000
H    -1.951000000     5.967000000    -7.563000000
H    -2.602000000     6.390000000    -6.264000000
