215
-1465.38881
C    -2.390000000     3.397000000     1.051000000
H    -1.335000000     3.536000000     0.828000000
C    -2.721000000     2.856000000     2.271000000
C    -4.042000000     2.619000000     2.599000000
H    -4.403000000     2.090000000     3.477000000
C    -1.502000000     2.373000000     3.089000000
O    -0.413000000     3.299000000     3.327000000
H    -1.079000000     1.587000000     2.446000000
O    -1.952000000     1.785000000     4.347000000
C    -1.431000000     0.538000000     4.452000000
C    -2.198000000    -0.477000000     3.954000000
H    -3.179000000    -0.286000000     3.526000000
C    -1.664000000    -1.755000000     3.888000000
O    -2.355000000    -2.800000000     3.317000000
C    -0.385000000    -2.034000000     4.360000000
C     0.251000000    -3.441000000     4.362000000
H     1.052000000    -3.424000000     5.105000000
C     0.870000000    -3.631000000     2.970000000
C     2.271000000    -3.470000000     2.760000000
H     2.904000000    -3.216000000     3.605000000
H    -0.434000000    -4.221000000     4.701000000
C     0.414000000    -0.959000000     4.797000000
H     1.446000000    -1.021000000     5.134000000
C    -0.114000000     0.356000000     4.884000000
C     0.760000000     1.479000000     5.317000000
H     1.377000000     1.119000000     6.143000000
H     0.159000000     2.268000000     5.773000000
C     1.622000000     2.090000000     4.155000000
C     2.902000000     1.699000000     3.907000000
H     3.320000000     0.898000000     4.512000000
C     1.006000000     3.043000000     3.279000000
C     1.719000000     3.498000000     2.136000000
H     1.160000000     4.158000000     1.478000000
C     3.041000000     3.061000000     1.878000000
O     3.683000000     3.496000000     0.779000000
C     3.640000000     2.672000000    -0.412000000
C     3.307000000     3.501000000    -1.644000000
C     3.830000000     3.229000000    -2.901000000
H     4.603000000     2.464000000    -2.905000000
C     2.408000000     4.556000000    -1.526000000
H     2.018000000     4.809000000    -0.544000000
O     4.894000000     1.935000000    -0.552000000
H     2.805000000     1.989000000    -0.194000000
C     3.609000000     2.122000000     2.741000000
C     4.952000000     1.425000000     2.403000000
H     5.352000000     0.948000000     3.300000000
H     5.596000000     2.261000000     2.124000000
C     4.730000000     0.382000000     1.279000000
C     4.575000000    -0.969000000     1.707000000
H     4.595000000    -1.203000000     2.768000000
C     4.742000000     0.662000000    -0.092000000
C     4.557000000    -0.377000000    -1.040000000
H     4.606000000    -0.158000000    -2.104000000
C     4.447000000    -1.691000000    -0.619000000
O     4.131000000    -2.620000000    -1.513000000
C     2.691000000    -2.861000000    -1.555000000
C     2.142000000    -2.840000000    -3.001000000
C     2.574000000    -1.918000000    -3.889000000
H     3.324000000    -1.162000000    -3.668000000
C     1.167000000    -3.746000000    -3.385000000
H     0.900000000    -4.546000000    -2.699000000
O     2.398000000    -4.060000000    -0.900000000
H     2.199000000    -2.088000000    -0.947000000
C     4.495000000    -1.993000000     0.766000000
C     4.229000000    -3.415000000     1.221000000
H     4.829000000    -3.599000000     2.114000000
H     4.551000000    -4.139000000     0.469000000
C     2.769000000    -3.605000000     1.438000000
C     1.925000000    -3.942000000     0.382000000
C     0.617000000    -4.270000000     0.700000000
H    -0.088000000    -4.639000000    -0.040000000
C     0.083000000    -3.987000000     1.886000000
O    -1.268000000    -4.164000000     1.942000000
C    -2.052000000    -2.999000000     1.983000000
H    -1.337000000    -2.227000000     1.664000000
C    -3.298000000    -3.050000000     1.025000000
C    -4.521000000    -2.568000000     1.502000000
H    -4.598000000    -2.185000000     2.516000000
C    -3.232000000    -3.602000000    -0.244000000
H    -2.270000000    -3.924000000    -0.636000000
C    -4.405000000    -3.648000000    -1.050000000
O    -4.306000000    -4.040000000    -2.362000000
C    -5.608000000    -3.136000000    -0.568000000
H    -6.486000000    -3.245000000    -1.199000000
C    -5.659000000    -2.667000000     0.717000000
O    -6.952000000    -2.204000000     1.209000000
C    -7.168000000    -1.047000000     2.010000000
C    -6.716000000     0.187000000     1.616000000
H    -6.303000000     0.319000000     0.619000000
C    -7.633000000    -1.073000000     3.385000000
H    -8.115000000    -2.009000000     3.655000000
C    -7.703000000     0.096000000     4.197000000
H    -8.180000000     0.071000000     5.173000000
C    -7.118000000     1.262000000     3.724000000
H    -7.211000000     2.200000000     4.265000000
C    -6.675000000     1.344000000     2.430000000
O    -6.319000000     2.579000000     1.904000000
C    -4.998000000     2.991000000     1.635000000
C    -4.710000000     3.631000000     0.468000000
H    -5.541000000     3.947000000    -0.157000000
C    -3.345000000     3.804000000     0.145000000
O    -2.927000000     4.381000000    -1.049000000
C    -2.048000000     5.478000000    -1.065000000
C    -0.858000000     5.401000000    -1.786000000
H    -0.625000000     4.507000000    -2.359000000
C    -2.411000000     6.617000000    -0.355000000
H    -3.391000000     6.674000000     0.111000000
C    -1.484000000     7.649000000    -0.268000000
H    -1.761000000     8.528000000     0.308000000
C    -0.229000000     7.525000000    -0.882000000
H     0.537000000     8.296000000    -0.845000000
C     0.059000000     6.435000000    -1.738000000
O     1.196000000     6.451000000    -2.465000000
C     1.983000000     5.314000000    -2.606000000
C     2.480000000     5.021000000    -3.887000000
H     2.161000000     5.578000000    -4.765000000
C     3.440000000     3.990000000    -4.012000000
O     3.899000000     3.631000000    -5.264000000
C     4.086000000     2.328000000    -5.621000000
C     3.055000000     1.414000000    -5.740000000
H     2.022000000     1.706000000    -5.565000000
C     5.380000000     1.792000000    -5.694000000
H     6.217000000     2.485000000    -5.737000000
C     5.655000000     0.458000000    -5.908000000
H     6.704000000     0.170000000    -5.911000000
C     4.617000000    -0.447000000    -6.018000000
H     4.884000000    -1.492000000    -6.152000000
C     3.333000000     0.067000000    -5.933000000
O     2.268000000    -0.728000000    -6.014000000
C     2.059000000    -1.798000000    -5.201000000
C     1.168000000    -2.736000000    -5.570000000
H     0.754000000    -2.725000000    -6.575000000
C     0.642000000    -3.657000000    -4.657000000
O    -0.401000000    -4.478000000    -5.034000000
C    -1.262000000    -5.040000000    -4.098000000
C    -1.137000000    -6.398000000    -3.632000000
H    -0.212000000    -6.872000000    -3.951000000
C    -1.968000000    -6.944000000    -2.719000000
H    -1.900000000    -7.962000000    -2.344000000
C    -3.069000000    -6.174000000    -2.371000000
H    -3.687000000    -6.499000000    -1.537000000
C    -3.244000000    -4.786000000    -2.843000000
C    -2.369000000    -4.271000000    -3.712000000
H    -2.498000000    -3.216000000    -3.938000000
C    -1.926000000    -0.340000000    -1.083000000
H    -2.988000000    -0.513000000    -0.927000000
C    -1.003000000    -0.235000000    -0.040000000
H    -1.361000000    -0.234000000     0.987000000
C     0.377000000    -0.051000000    -0.250000000
H     1.057000000    -0.067000000     0.665000000
C     0.892000000     0.096000000    -1.555000000
H     1.950000000     0.126000000    -1.801000000
C    -0.081000000    -0.031000000    -2.618000000
H     0.275000000     0.275000000    -3.598000000
C    -1.466000000    -0.163000000    -2.382000000
C    -2.394000000    -0.064000000    -3.592000000
O    -2.014000000     0.433000000    -4.651000000
O    -3.582000000    -0.351000000    -3.467000000
O    -8.293000000    -1.994000000    -2.993000000
H    -8.689000000    -2.127000000    -3.854000000
H    -7.352000000    -1.959000000    -3.165000000
O    -2.280000000     4.673000000    -4.601000000
H    -2.819000000     5.397000000    -4.281000000
H    -1.654000000     5.085000000    -5.196000000
O    -0.433000000     2.478000000    -4.934000000
H    -0.970000000     3.183000000    -4.573000000
H    -0.971000000     1.693000000    -4.836000000
O    -3.263000000    -1.369000000    -6.288000000
H    -3.288000000    -1.128000000    -5.362000000
H    -2.420000000    -1.038000000    -6.599000000
O    -0.669000000    -0.370000000    -6.879000000
H     0.081000000     0.102000000    -7.242000000
H    -0.792000000     0.008000000    -6.008000000
O    -5.082000000     1.488000000    -2.490000000
H    -4.407000000     0.882000000    -2.795000000
H    -5.851000000     1.276000000    -3.020000000
O    -4.619000000    -3.724000000    -6.069000000
H    -4.347000000    -4.459000000    -6.618000000
H    -4.172000000    -2.966000000    -6.445000000
O     0.890000000     1.363000000    -8.163000000
H     0.370000000     1.777000000    -8.851000000
H     0.944000000     2.024000000    -7.473000000
O    -0.889000000    -1.034000000    -9.859000000
H    -0.952000000    -1.411000000    -8.981000000
H    -0.482000000    -0.178000000    -9.724000000
O    -4.622000000     4.074000000    -3.328000000
H    -3.880000000     3.961000000    -3.922000000
H    -4.831000000     3.188000000    -3.034000000
O    -6.271000000     1.076000000    -5.237000000
H    -5.383000000     1.351000000    -5.464000000
H    -6.224000000     0.121000000    -5.202000000
O    -9.029000000     1.650000000    -4.673000000
H    -9.659000000     1.106000000    -4.201000000
H    -8.229000000     1.125000000    -4.695000000
O    -7.255000000    -1.895000000    -6.659000000
H    -6.731000000    -1.952000000    -7.458000000
H    -6.766000000    -2.405000000    -6.014000000
O    -3.612000000     2.242000000    -5.599000000
H    -3.009000000     1.541000000    -5.348000000
H    -3.082000000     3.038000000    -5.562000000
O    -4.898000000    -0.148000000    -8.322000000
H    -4.342000000    -0.335000000    -9.078000000
H    -4.319000000    -0.252000000    -7.567000000
O    -5.712000000    -1.756000000    -3.973000000
H    -5.275000000    -2.579000000    -4.194000000
H    -4.999000000    -1.165000000    -3.729000000
O    -6.171000000     2.657000000    -7.596000000
H    -5.482000000     2.087000000    -7.254000000
H    -6.823000000     2.055000000    -7.956000000
O    -7.171000000     4.306000000    -4.349000000
H    -7.330000000     3.372000000    -4.482000000
H    -6.330000000     4.343000000    -3.892000000
O     1.188000000     3.765000000    -6.975000000
H     0.530000000     4.259000000    -7.464000000
H     0.739000000     3.494000000    -6.175000000
