215
-1474.39295
C     3.878000000     0.174000000    -4.033000000
H     3.269000000    -0.689000000    -4.288000000
C     4.260000000     0.401000000    -2.684000000
C     4.803000000     1.599000000    -2.312000000
H     5.092000000     1.860000000    -1.297000000
C     3.946000000    -0.686000000    -1.572000000
O     4.081000000    -2.065000000    -2.035000000
H     2.903000000    -0.557000000    -1.249000000
O     4.802000000    -0.510000000    -0.441000000
C     4.396000000    -0.722000000     0.863000000
C     4.070000000     0.443000000     1.559000000
H     4.278000000     1.356000000     1.007000000
C     3.488000000     0.270000000     2.825000000
O     3.050000000     1.448000000     3.458000000
C     3.195000000    -1.008000000     3.359000000
C     2.559000000    -1.190000000     4.682000000
H     2.811000000    -2.184000000     5.059000000
C     1.001000000    -0.983000000     4.705000000
C     0.271000000    -2.143000000     4.488000000
H     0.771000000    -3.107000000     4.439000000
H     3.030000000    -0.381000000     5.244000000
C     3.406000000    -2.190000000     2.542000000
H     3.080000000    -3.164000000     2.896000000
C     4.126000000    -1.995000000     1.362000000
C     4.417000000    -3.280000000     0.575000000
H     4.562000000    -4.032000000     1.354000000
H     5.387000000    -3.255000000     0.074000000
C     3.254000000    -3.649000000    -0.326000000
C     2.294000000    -4.517000000     0.064000000
H     2.280000000    -4.967000000     1.053000000
C     3.132000000    -3.016000000    -1.556000000
C     1.968000000    -3.171000000    -2.336000000
H     1.974000000    -2.570000000    -3.242000000
C     0.992000000    -4.080000000    -1.876000000
O    -0.250000000    -4.093000000    -2.500000000
C    -1.252000000    -3.207000000    -2.097000000
C    -1.814000000    -2.447000000    -3.292000000
C    -3.105000000    -2.117000000    -3.226000000
H    -3.795000000    -2.426000000    -2.445000000
C    -0.953000000    -1.915000000    -4.261000000
H     0.096000000    -2.201000000    -4.252000000
O    -2.237000000    -3.998000000    -1.471000000
H    -0.926000000    -2.505000000    -1.316000000
C     1.131000000    -4.708000000    -0.666000000
C    -0.096000000    -5.433000000    -0.047000000
H     0.195000000    -6.207000000     0.667000000
H    -0.613000000    -6.034000000    -0.798000000
C    -1.151000000    -4.591000000     0.556000000
C    -1.150000000    -4.468000000     1.983000000
H    -0.408000000    -4.996000000     2.575000000
C    -2.260000000    -4.130000000    -0.124000000
C    -3.242000000    -3.375000000     0.521000000
H    -3.979000000    -2.891000000    -0.115000000
C    -3.132000000    -3.098000000     1.892000000
O    -3.988000000    -2.233000000     2.464000000
C    -3.534000000    -0.891000000     2.818000000
C    -4.559000000     0.131000000     2.482000000
C    -5.365000000    -0.029000000     1.291000000
H    -5.200000000    -0.855000000     0.604000000
C    -4.603000000     1.300000000     3.199000000
H    -3.959000000     1.441000000     4.063000000
O    -3.122000000    -0.796000000     4.248000000
H    -2.720000000    -0.550000000     2.161000000
C    -2.053000000    -3.711000000     2.671000000
C    -1.905000000    -3.503000000     4.154000000
H    -1.407000000    -4.362000000     4.609000000
H    -2.906000000    -3.324000000     4.550000000
C    -1.117000000    -2.169000000     4.391000000
C    -1.791000000    -0.962000000     4.461000000
C    -1.122000000     0.256000000     4.584000000
H    -1.612000000     1.225000000     4.635000000
C     0.285000000     0.253000000     4.612000000
O     0.991000000     1.520000000     4.525000000
C     1.656000000     1.784000000     3.301000000
H     1.226000000     1.115000000     2.541000000
C     1.378000000     3.163000000     2.820000000
C     2.336000000     3.779000000     1.969000000
H     3.258000000     3.263000000     1.713000000
C     0.159000000     3.884000000     3.040000000
H    -0.605000000     3.394000000     3.637000000
C    -0.101000000     5.095000000     2.381000000
O    -1.377000000     5.613000000     2.358000000
C     0.864000000     5.613000000     1.503000000
H     0.534000000     6.494000000     0.959000000
C     2.140000000     5.020000000     1.372000000
O     3.042000000     5.565000000     0.436000000
C     4.230000000     5.003000000    -0.043000000
C     4.340000000     4.766000000    -1.405000000
H     3.412000000     4.795000000    -1.971000000
C     5.354000000     4.961000000     0.778000000
H     5.252000000     5.228000000     1.827000000
C     6.567000000     4.605000000     0.255000000
H     7.404000000     4.649000000     0.948000000
C     6.703000000     4.255000000    -1.087000000
H     7.657000000     3.888000000    -1.456000000
C     5.598000000     4.338000000    -1.911000000
O     5.634000000     3.737000000    -3.122000000
C     5.127000000     2.512000000    -3.319000000
C     4.892000000     2.197000000    -4.647000000
H     5.322000000     2.845000000    -5.406000000
C     4.210000000     1.053000000    -5.061000000
O     3.976000000     0.698000000    -6.382000000
C     2.995000000    -0.185000000    -6.607000000
C     1.631000000     0.076000000    -6.382000000
H     1.318000000     0.982000000    -5.871000000
C     3.372000000    -1.362000000    -7.257000000
H     4.398000000    -1.518000000    -7.581000000
C     2.420000000    -2.311000000    -7.575000000
H     2.806000000    -3.224000000    -8.021000000
C     1.078000000    -2.130000000    -7.279000000
H     0.444000000    -2.928000000    -7.657000000
C     0.655000000    -0.933000000    -6.685000000
O    -0.653000000    -0.760000000    -6.371000000
C    -1.442000000    -1.123000000    -5.320000000
C    -2.806000000    -0.787000000    -5.265000000
H    -3.112000000    -0.087000000    -6.037000000
C    -3.653000000    -1.230000000    -4.218000000
O    -4.974000000    -0.910000000    -4.253000000
C    -5.812000000    -0.987000000    -3.121000000
C    -5.977000000     0.159000000    -2.302000000
H    -5.326000000     1.013000000    -2.470000000
C    -6.546000000    -2.171000000    -2.855000000
H    -6.394000000    -3.048000000    -3.479000000
C    -7.430000000    -2.196000000    -1.762000000
H    -7.968000000    -3.116000000    -1.548000000
C    -7.567000000    -1.052000000    -0.994000000
H    -8.172000000    -1.068000000    -0.091000000
C    -6.830000000     0.100000000    -1.235000000
O    -6.890000000     1.072000000    -0.269000000
C    -6.189000000     1.056000000     0.901000000
C    -6.284000000     2.165000000     1.755000000
H    -6.855000000     3.045000000     1.473000000
C    -5.503000000     2.281000000     2.906000000
O    -5.509000000     3.486000000     3.566000000
C    -4.379000000     4.203000000     3.931000000
C    -4.144000000     4.546000000     5.302000000
H    -4.875000000     4.175000000     6.017000000
C    -2.973000000     5.214000000     5.664000000
H    -2.656000000     5.490000000     6.667000000
C    -2.059000000     5.462000000     4.653000000
H    -1.038000000     5.651000000     4.974000000
C    -2.310000000     5.270000000     3.316000000
C    -3.493000000     4.669000000     2.985000000
H    -3.686000000     4.332000000     1.970000000
C    -0.982000000     0.973000000    -2.095000000
H    -0.826000000     0.979000000    -3.171000000
C    -0.155000000     0.196000000    -1.367000000
H     0.709000000    -0.333000000    -1.760000000
C    -0.236000000     0.248000000    -0.004000000
H     0.442000000    -0.525000000     0.442000000
C    -1.108000000     1.121000000     0.641000000
H    -1.097000000     1.166000000     1.727000000
C    -1.973000000     1.880000000    -0.120000000
H    -2.710000000     2.532000000     0.341000000
C    -1.983000000     1.755000000    -1.529000000
C    -2.976000000     2.430000000    -2.382000000
O    -3.837000000     3.124000000    -1.878000000
O    -2.800000000     2.329000000    -3.597000000
O    -6.369000000     4.026000000    -1.383000000
H    -6.903000000     3.587000000    -2.045000000
H    -5.571000000     3.500000000    -1.332000000
O    -0.180000000     4.688000000    -1.948000000
H    -0.383000000     4.618000000    -1.016000000
H     0.447000000     3.984000000    -2.110000000
O    -0.908000000     7.128000000    -5.733000000
H    -1.531000000     6.505000000    -5.357000000
H    -1.012000000     7.919000000    -5.203000000
O    -4.556000000     5.772000000    -2.874000000
H    -5.407000000     5.362000000    -3.032000000
H    -3.960000000     5.038000000    -2.726000000
O    -2.130000000     5.082000000    -3.832000000
H    -1.465000000     4.791000000    -3.208000000
H    -2.669000000     4.307000000    -3.988000000
O    -7.317000000     6.931000000    -2.641000000
H    -6.717000000     6.765000000    -1.914000000
H    -8.188000000     6.890000000    -2.246000000
O    -4.912000000     2.669000000    -5.116000000
H    -5.722000000     2.921000000    -4.673000000
H    -4.271000000     2.581000000    -4.411000000
O    -2.776000000     5.092000000    -0.415000000
H    -2.359000000     5.494000000    -1.177000000
H    -3.360000000     4.429000000    -0.784000000
O    -1.021000000     1.467000000    -8.200000000
H    -1.191000000     1.587000000    -7.266000000
H    -0.217000000     1.959000000    -8.362000000
O     1.593000000     3.052000000    -3.054000000
H     1.093000000     3.427000000    -3.779000000
H     2.487000000     2.987000000    -3.389000000
O    -4.657000000     6.745000000    -6.588000000
H    -5.583000000     6.854000000    -6.369000000
H    -4.189000000     7.126000000    -5.846000000
O    -6.359000000     0.523000000    -6.392000000
H    -6.524000000    -0.080000000    -5.667000000
H    -5.794000000     1.199000000    -6.017000000
O     0.369000000     4.343000000    -5.381000000
H    -0.333000000     3.696000000    -5.321000000
H     0.000000000     5.134000000    -4.988000000
O    -3.521000000     7.839000000    -4.513000000
H    -3.540000000     8.520000000    -3.841000000
H    -3.420000000     7.022000000    -4.024000000
O    -6.681000000     5.818000000     0.745000000
H    -5.943000000     6.409000000     0.596000000
H    -6.574000000     5.130000000     0.089000000
O    -1.665000000     2.387000000    -5.850000000
H    -2.330000000     2.825000000    -6.381000000
H    -2.118000000     2.162000000    -5.037000000
O    -7.351000000     3.293000000    -4.054000000
H    -7.970000000     2.564000000    -4.051000000
H    -7.796000000     3.984000000    -4.544000000
O    -3.549000000     4.224000000    -6.861000000
H    -4.111000000     3.594000000    -6.411000000
H    -3.960000000     5.073000000    -6.697000000
O    -4.944000000     7.416000000    -0.708000000
H    -4.839000000     6.982000000    -1.555000000
H    -4.057000000     7.470000000    -0.354000000
