215
-1457.11987
C    -2.584000000     3.817000000     0.176000000
H    -1.554000000     4.114000000     0.001000000
C    -3.067000000     3.116000000     1.350000000
C    -4.386000000     2.722000000     1.509000000
H    -4.676000000     2.289000000     2.463000000
C    -2.008000000     2.615000000     2.336000000
O    -1.039000000     3.707000000     2.569000000
H    -1.524000000     1.740000000     1.877000000
O    -2.532000000     2.164000000     3.610000000
C    -1.973000000     1.070000000     4.234000000
C    -2.564000000    -0.110000000     4.000000000
H    -3.499000000    -0.151000000     3.447000000
C    -1.857000000    -1.309000000     4.255000000
O    -2.342000000    -2.528000000     3.849000000
C    -0.595000000    -1.360000000     4.864000000
C     0.181000000    -2.648000000     5.021000000
H     0.884000000    -2.634000000     5.856000000
C     1.018000000    -3.114000000     3.771000000
C     2.310000000    -2.627000000     3.566000000
H     2.875000000    -2.133000000     4.353000000
H    -0.532000000    -3.355000000     5.451000000
C     0.005000000    -0.147000000     5.068000000
H     1.003000000    -0.127000000     5.500000000
C    -0.702000000     1.068000000     4.844000000
C     0.005000000     2.401000000     5.011000000
H     0.602000000     2.411000000     5.926000000
H    -0.675000000     3.247000000     5.135000000
C     0.872000000     2.789000000     3.792000000
C     2.267000000     2.457000000     3.693000000
H     2.766000000     1.909000000     4.488000000
C     0.303000000     3.442000000     2.701000000
C     1.089000000     3.751000000     1.589000000
H     0.677000000     4.315000000     0.756000000
C     2.384000000     3.407000000     1.501000000
O     3.076000000     3.795000000     0.385000000
C     3.245000000     2.835000000    -0.743000000
C     3.123000000     3.643000000    -2.024000000
C     3.663000000     3.042000000    -3.197000000
H     4.451000000     2.296000000    -3.135000000
C     2.154000000     4.629000000    -2.220000000
H     1.702000000     5.070000000    -1.335000000
O     4.556000000     2.294000000    -0.512000000
H     2.485000000     2.042000000    -0.690000000
C     3.002000000     2.727000000     2.563000000
C     4.457000000     2.355000000     2.402000000
H     4.928000000     2.135000000     3.363000000
H     4.965000000     3.153000000     1.857000000
C     4.580000000     1.127000000     1.521000000
C     4.609000000    -0.067000000     2.241000000
H     4.416000000    -0.044000000     3.310000000
C     4.671000000     1.083000000     0.140000000
C     4.694000000    -0.064000000    -0.589000000
H     4.716000000     0.007000000    -1.674000000
C     4.633000000    -1.291000000     0.082000000
O     4.413000000    -2.361000000    -0.706000000
C     3.093000000    -2.962000000    -0.677000000
C     2.653000000    -3.355000000    -2.067000000
C     2.782000000    -2.444000000    -3.075000000
H     3.293000000    -1.499000000    -2.910000000
C     1.901000000    -4.532000000    -2.308000000
H     1.688000000    -5.180000000    -1.462000000
O     3.180000000    -4.013000000     0.262000000
H     2.358000000    -2.172000000    -0.461000000
C     4.661000000    -1.296000000     1.537000000
C     4.526000000    -2.606000000     2.308000000
H     4.925000000    -2.568000000     3.324000000
H     5.003000000    -3.448000000     1.803000000
C     3.057000000    -2.952000000     2.420000000
C     2.443000000    -3.736000000     1.397000000
C     1.083000000    -4.055000000     1.559000000
H     0.563000000    -4.601000000     0.775000000
C     0.421000000    -3.734000000     2.723000000
O    -0.912000000    -4.045000000     2.752000000
C    -1.826000000    -2.946000000     2.551000000
H    -1.312000000    -2.032000000     2.218000000
C    -2.939000000    -3.358000000     1.653000000
C    -4.193000000    -2.726000000     1.745000000
H    -4.489000000    -2.302000000     2.701000000
C    -2.740000000    -4.150000000     0.495000000
H    -1.783000000    -4.646000000     0.356000000
C    -3.782000000    -4.316000000    -0.445000000
O    -3.621000000    -4.947000000    -1.627000000
C    -4.991000000    -3.682000000    -0.289000000
H    -5.778000000    -3.693000000    -1.039000000
C    -5.187000000    -2.854000000     0.768000000
O    -6.472000000    -2.293000000     0.953000000
C    -6.823000000    -1.011000000     1.337000000
C    -6.396000000     0.164000000     0.688000000
H    -5.676000000     0.073000000    -0.121000000
C    -7.829000000    -0.915000000     2.290000000
H    -8.206000000    -1.833000000     2.735000000
C    -8.377000000     0.326000000     2.675000000
H    -9.286000000     0.342000000     3.271000000
C    -7.841000000     1.464000000     2.167000000
H    -8.308000000     2.402000000     2.456000000
C    -6.814000000     1.403000000     1.188000000
O    -6.578000000     2.581000000     0.524000000
C    -5.257000000     2.975000000     0.462000000
C    -4.821000000     3.703000000    -0.665000000
H    -5.536000000     4.067000000    -1.398000000
C    -3.494000000     4.132000000    -0.798000000
O    -3.121000000     4.718000000    -1.957000000
C    -2.115000000     5.680000000    -2.011000000
C    -0.949000000     5.418000000    -2.794000000
H    -0.872000000     4.448000000    -3.279000000
C    -2.331000000     6.910000000    -1.380000000
H    -3.288000000     7.001000000    -0.872000000
C    -1.421000000     7.918000000    -1.655000000
H    -1.586000000     8.926000000    -1.286000000
C    -0.259000000     7.707000000    -2.433000000
H     0.490000000     8.488000000    -2.543000000
C    -0.037000000     6.486000000    -3.021000000
O     1.137000000     6.224000000    -3.735000000
C     1.969000000     5.134000000    -3.517000000
C     2.498000000     4.514000000    -4.598000000
H     2.228000000     4.875000000    -5.587000000
C     3.282000000     3.465000000    -4.438000000
O     3.808000000     2.825000000    -5.570000000
C     4.134000000     1.528000000    -5.505000000
C     3.120000000     0.491000000    -5.610000000
H     2.077000000     0.705000000    -5.830000000
C     5.451000000     1.202000000    -5.356000000
H     6.127000000     2.046000000    -5.466000000
C     5.813000000    -0.094000000    -5.168000000
H     6.868000000    -0.319000000    -5.033000000
C     4.874000000    -1.096000000    -5.138000000
H     5.222000000    -2.124000000    -5.066000000
C     3.522000000    -0.855000000    -5.379000000
O     2.567000000    -1.848000000    -5.464000000
C     2.341000000    -2.743000000    -4.370000000
C     1.686000000    -3.928000000    -4.654000000
H     1.373000000    -4.240000000    -5.648000000
C     1.379000000    -4.778000000    -3.583000000
O     0.568000000    -5.890000000    -3.749000000
C    -0.474000000    -6.302000000    -2.926000000
C    -0.630000000    -7.684000000    -2.707000000
H     0.102000000    -8.389000000    -3.091000000
C    -1.731000000    -8.112000000    -2.007000000
H    -2.031000000    -9.157000000    -1.993000000
C    -2.708000000    -7.220000000    -1.583000000
H    -3.612000000    -7.578000000    -1.096000000
C    -2.624000000    -5.860000000    -1.856000000
C    -1.493000000    -5.455000000    -2.544000000
H    -1.354000000    -4.429000000    -2.875000000
C    -2.227000000    -0.660000000    -1.201000000
H    -2.802000000    -1.575000000    -1.315000000
C    -1.084000000    -0.575000000    -0.427000000
H    -0.682000000    -1.426000000     0.116000000
C    -0.226000000     0.541000000    -0.510000000
H     0.640000000     0.595000000     0.151000000
C    -0.570000000     1.624000000    -1.259000000
H     0.000000000     2.550000000    -1.263000000
C    -1.801000000     1.589000000    -1.966000000
H    -2.075000000     2.422000000    -2.608000000
C    -2.595000000     0.409000000    -1.966000000
C    -3.752000000     0.337000000    -2.874000000
O    -4.011000000     1.260000000    -3.611000000
O    -4.623000000    -0.500000000    -2.779000000
O    -1.066000000     3.647000000    -6.296000000
H    -0.292000000     3.936000000    -6.779000000
H    -1.358000000     4.427000000    -5.823000000
O    -4.081000000     3.819000000    -4.294000000
H    -3.475000000     4.032000000    -3.583000000
H    -4.385000000     2.935000000    -4.092000000
O    -2.901000000    -1.524000000    -6.673000000
H    -2.152000000    -1.888000000    -7.145000000
H    -2.601000000    -0.666000000    -6.374000000
O    -7.660000000     5.356000000    -2.150000000
H    -8.337000000     5.808000000    -1.647000000
H    -8.131000000     4.673000000    -2.627000000
O    -2.569000000     1.442000000    -5.804000000
H    -2.137000000     2.290000000    -5.902000000
H    -3.095000000     1.531000000    -5.010000000
O    -5.463000000    -4.748000000    -4.431000000
H    -4.802000000    -5.272000000    -3.979000000
H    -5.075000000    -3.875000000    -4.494000000
O    -7.793000000     3.151000000    -4.090000000
H    -7.457000000     2.329000000    -4.447000000
H    -8.164000000     2.911000000    -3.241000000
O    -4.678000000    -2.283000000    -4.702000000
H    -3.944000000    -2.087000000    -5.285000000
H    -4.509000000    -1.758000000    -3.920000000
O    -9.177000000    -1.667000000    -4.298000000
H    -8.548000000    -1.454000000    -3.609000000
H    -8.639000000    -1.827000000    -5.073000000
O    -1.476000000     0.440000000    -8.490000000
H    -0.801000000     0.546000000    -7.820000000
H    -2.182000000     1.025000000    -8.214000000
O    -4.614000000     6.693000000    -4.488000000
H    -5.384000000     6.837000000    -5.038000000
H    -4.616000000     5.752000000    -4.313000000
O    -8.378000000     2.205000000    -1.622000000
H    -8.809000000     1.377000000    -1.410000000
H    -7.774000000     2.354000000    -0.894000000
O    -7.921000000     0.229000000    -6.863000000
H    -7.662000000     0.762000000    -6.111000000
H    -7.194000000    -0.382000000    -6.984000000
O    -6.157000000     0.698000000    -4.725000000
H    -6.580000000    -0.115000000    -4.448000000
H    -5.396000000     0.780000000    -4.151000000
O    -5.761000000    -1.408000000    -7.632000000
H    -5.981000000    -2.319000000    -7.823000000
H    -4.805000000    -1.399000000    -7.576000000
O    -7.355000000    -0.838000000    -2.677000000
H    -7.502000000    -0.441000000    -1.819000000
H    -6.421000000    -0.710000000    -2.844000000
O    -9.086000000    -2.228000000    -0.708000000
H    -8.333000000    -2.665000000    -0.311000000
H    -9.791000000    -2.339000000    -0.070000000
O    -4.723000000     3.401000000    -7.254000000
H    -4.162000000     2.784000000    -6.783000000
H    -5.017000000     4.017000000    -6.584000000
O    -6.545000000     4.950000000    -5.633000000
H    -6.865000000     4.297000000    -5.009000000
H    -7.337000000     5.295000000    -6.045000000
