215
-1467.43878
C    -2.246000000     4.617000000     0.909000000
H    -1.332000000     5.196000000     1.022000000
C    -2.529000000     3.533000000     1.716000000
C    -3.734000000     2.865000000     1.601000000
H    -4.007000000     2.021000000     2.229000000
C    -1.463000000     3.001000000     2.731000000
O    -0.532000000     3.967000000     2.973000000
H    -1.026000000     2.133000000     2.214000000
O    -2.086000000     2.458000000     3.957000000
C    -1.615000000     1.238000000     4.375000000
C    -2.364000000     0.113000000     4.073000000
H    -3.376000000     0.268000000     3.709000000
C    -1.849000000    -1.157000000     4.217000000
O    -2.611000000    -2.204000000     3.676000000
C    -0.519000000    -1.350000000     4.737000000
C     0.010000000    -2.789000000     4.941000000
H     0.649000000    -2.793000000     5.826000000
C     0.691000000    -3.237000000     3.685000000
C     2.034000000    -2.962000000     3.497000000
H     2.599000000    -2.521000000     4.313000000
H    -0.823000000    -3.436000000     5.223000000
C     0.220000000    -0.218000000     5.017000000
H     1.281000000    -0.336000000     5.226000000
C    -0.319000000     1.129000000     4.805000000
C     0.575000000     2.358000000     5.108000000
H     1.222000000     2.199000000     5.973000000
H    -0.084000000     3.095000000     5.571000000
C     1.408000000     2.827000000     3.904000000
C     2.714000000     2.442000000     3.684000000
H     3.226000000     1.887000000     4.466000000
C     0.793000000     3.569000000     2.858000000
C     1.449000000     3.884000000     1.640000000
H     1.090000000     4.581000000     0.887000000
C     2.773000000     3.451000000     1.492000000
O     3.386000000     3.718000000     0.345000000
C     3.379000000     2.645000000    -0.647000000
C     3.134000000     3.275000000    -2.074000000
C     3.849000000     2.885000000    -3.222000000
H     4.733000000     2.295000000    -2.994000000
C     2.047000000     4.088000000    -2.254000000
H     1.556000000     4.432000000    -1.347000000
O     4.540000000     1.903000000    -0.621000000
H     2.482000000     2.025000000    -0.502000000
C     3.413000000     2.697000000     2.493000000
C     4.788000000     1.955000000     2.289000000
H     5.329000000     1.782000000     3.221000000
H     5.538000000     2.588000000     1.811000000
C     4.596000000     0.713000000     1.477000000
C     4.408000000    -0.547000000     2.129000000
H     4.248000000    -0.533000000     3.204000000
C     4.517000000     0.755000000     0.097000000
C     4.360000000    -0.428000000    -0.627000000
H     4.410000000    -0.468000000    -1.712000000
C     4.229000000    -1.646000000    -0.058000000
O     3.943000000    -2.708000000    -0.885000000
C     2.582000000    -3.097000000    -0.879000000
C     2.076000000    -3.453000000    -2.193000000
C     2.517000000    -2.692000000    -3.272000000
H     3.279000000    -1.924000000    -3.171000000
C     1.221000000    -4.461000000    -2.514000000
H     0.744000000    -5.061000000    -1.743000000
O     2.386000000    -4.266000000    -0.007000000
H     1.904000000    -2.320000000    -0.495000000
C     4.230000000    -1.690000000     1.358000000
C     4.098000000    -3.066000000     2.062000000
H     4.571000000    -2.947000000     3.040000000
H     4.663000000    -3.839000000     1.536000000
C     2.677000000    -3.407000000     2.320000000
C     1.975000000    -4.090000000     1.331000000
C     0.636000000    -4.302000000     1.534000000
H     0.119000000    -4.753000000     0.690000000
C    -0.022000000    -3.850000000     2.645000000
O    -1.393000000    -3.937000000     2.565000000
C    -2.177000000    -2.723000000     2.410000000
H    -1.540000000    -1.962000000     1.934000000
C    -3.301000000    -2.942000000     1.392000000
C    -4.508000000    -2.297000000     1.650000000
H    -4.566000000    -1.779000000     2.604000000
C    -3.193000000    -3.786000000     0.344000000
H    -2.262000000    -4.323000000     0.179000000
C    -4.230000000    -4.004000000    -0.543000000
O    -4.134000000    -4.750000000    -1.685000000
C    -5.428000000    -3.342000000    -0.304000000
H    -6.273000000    -3.486000000    -0.972000000
C    -5.575000000    -2.523000000     0.819000000
O    -6.808000000    -1.976000000     1.005000000
C    -6.896000000    -0.652000000     1.491000000
C    -6.303000000     0.367000000     0.740000000
H    -5.726000000     0.177000000    -0.161000000
C    -7.580000000    -0.463000000     2.681000000
H    -7.941000000    -1.369000000     3.162000000
C    -7.665000000     0.850000000     3.181000000
H    -8.105000000     0.983000000     4.166000000
C    -7.092000000     1.868000000     2.406000000
H    -7.251000000     2.884000000     2.757000000
C    -6.382000000     1.633000000     1.223000000
O    -5.910000000     2.700000000     0.412000000
C    -4.739000000     3.367000000     0.697000000
C    -4.424000000     4.521000000    -0.113000000
H    -5.172000000     4.863000000    -0.824000000
C    -3.231000000     5.175000000     0.070000000
O    -3.052000000     6.174000000    -0.844000000
C    -1.871000000     6.461000000    -1.501000000
C    -1.223000000     5.531000000    -2.293000000
H    -1.459000000     4.470000000    -2.308000000
C    -1.330000000     7.763000000    -1.374000000
H    -1.836000000     8.531000000    -0.795000000
C    -0.287000000     8.091000000    -2.198000000
H     0.065000000     9.114000000    -2.308000000
C     0.307000000     7.164000000    -3.010000000
H     1.175000000     7.487000000    -3.579000000
C    -0.130000000     5.838000000    -3.059000000
O     0.454000000     4.896000000    -3.843000000
C     1.640000000     4.366000000    -3.537000000
C     2.363000000     3.982000000    -4.636000000
H     1.964000000     4.114000000    -5.639000000
C     3.485000000     3.209000000    -4.470000000
O     4.110000000     2.436000000    -5.496000000
C     4.311000000     1.089000000    -5.385000000
C     3.258000000     0.164000000    -5.381000000
H     2.252000000     0.573000000    -5.338000000
C     5.654000000     0.679000000    -5.376000000
H     6.469000000     1.388000000    -5.261000000
C     5.982000000    -0.682000000    -5.466000000
H     7.001000000    -1.059000000    -5.442000000
C     4.952000000    -1.653000000    -5.521000000
H     5.200000000    -2.706000000    -5.630000000
C     3.617000000    -1.212000000    -5.505000000
O     2.533000000    -2.071000000    -5.615000000
C     2.069000000    -2.832000000    -4.607000000
C     1.162000000    -3.879000000    -4.860000000
H     0.742000000    -4.099000000    -5.838000000
C     0.718000000    -4.693000000    -3.811000000
O    -0.174000000    -5.764000000    -3.947000000
C    -1.161000000    -6.168000000    -3.086000000
C    -1.232000000    -7.485000000    -2.754000000
H    -0.442000000    -8.200000000    -2.971000000
C    -2.458000000    -7.876000000    -2.160000000
H    -2.603000000    -8.947000000    -2.039000000
C    -3.465000000    -6.956000000    -1.853000000
H    -4.419000000    -7.315000000    -1.475000000
C    -3.224000000    -5.595000000    -2.018000000
C    -2.051000000    -5.220000000    -2.723000000
H    -1.950000000    -4.178000000    -3.013000000
C    -1.998000000    -0.514000000    -0.791000000
H    -2.444000000    -1.505000000    -0.787000000
C    -0.876000000    -0.248000000    -0.021000000
H    -0.451000000    -1.091000000     0.518000000
C    -0.339000000     1.097000000     0.101000000
H     0.576000000     1.222000000     0.718000000
C    -0.960000000     2.130000000    -0.629000000
H    -0.541000000     3.129000000    -0.718000000
C    -2.148000000     1.833000000    -1.349000000
H    -2.620000000     2.662000000    -1.871000000
C    -2.608000000     0.544000000    -1.393000000
C    -3.799000000     0.225000000    -2.326000000
O    -4.267000000     1.120000000    -3.008000000
O    -4.032000000    -0.958000000    -2.432000000
O    -9.945000000     0.282000000    -0.179000000
H   -10.624000000     0.184000000    -0.847000000
H    -9.187000000     0.620000000    -0.656000000
O    -4.709000000    -4.180000000    -6.307000000
H    -4.000000000    -4.787000000    -6.095000000
H    -4.548000000    -3.418000000    -5.751000000
O    -1.095000000     2.803000000    -5.601000000
H    -0.465000000     2.598000000    -6.293000000
H    -0.722000000     3.564000000    -5.156000000
O    -4.619000000     3.728000000    -3.531000000
H    -4.697000000     3.719000000    -4.485000000
H    -4.407000000     2.823000000    -3.300000000
O    -2.993000000    -0.110000000    -8.391000000
H    -2.906000000     0.618000000    -7.776000000
H    -2.376000000    -0.768000000    -8.071000000
O    -1.517000000    -0.080000000    -5.346000000
H    -1.659000000     0.864000000    -5.272000000
H    -1.949000000    -0.448000000    -4.575000000
O    -6.655000000    -4.342000000    -4.302000000
H    -6.287000000    -3.630000000    -3.779000000
H    -6.089000000    -4.390000000    -5.073000000
O    -7.185000000     4.132000000    -1.847000000
H    -7.233000000     3.904000000    -0.919000000
H    -6.313000000     3.848000000    -2.118000000
O    -4.858000000    -2.041000000    -4.701000000
H    -4.896000000    -1.276000000    -5.275000000
H    -4.430000000    -1.722000000    -3.906000000
O    -8.934000000    -1.307000000    -4.242000000
H    -8.168000000    -1.343000000    -3.669000000
H    -9.244000000    -2.211000000    -4.283000000
O    -1.204000000    -1.776000000    -7.343000000
H    -0.323000000    -1.775000000    -7.718000000
H    -1.148000000    -1.175000000    -6.601000000
O    -3.412000000     5.508000000    -5.298000000
H    -4.268000000     5.250000000    -5.639000000
H    -3.381000000     5.133000000    -4.418000000
O    -8.479000000     1.259000000    -2.522000000
H    -8.860000000     0.497000000    -2.958000000
H    -8.697000000     1.995000000    -3.094000000
O    -7.072000000    -0.471000000    -6.520000000
H    -7.524000000    -0.817000000    -5.750000000
H    -6.314000000    -0.008000000    -6.164000000
O    -5.045000000     0.765000000    -5.445000000
H    -4.576000000     1.524000000    -5.792000000
H    -4.884000000     0.795000000    -4.502000000
O    -5.708000000     1.430000000    -8.626000000
H    -4.912000000     1.124000000    -8.193000000
H    -6.249000000     0.645000000    -8.715000000
O    -6.738000000    -1.042000000    -2.637000000
H    -6.805000000    -0.089000000    -2.571000000
H    -5.807000000    -1.225000000    -2.511000000
O    -9.443000000    -2.408000000    -0.229000000
H    -8.533000000    -2.504000000     0.051000000
H    -9.590000000    -1.462000000    -0.249000000
O    -3.468000000     2.390000000    -6.903000000
H    -3.851000000     3.260000000    -7.014000000
H    -2.690000000     2.538000000    -6.366000000
