215
-1443.18956
C    -2.290000000     3.354000000     0.187000000
H    -1.230000000     3.564000000     0.061000000
C    -2.725000000     2.750000000     1.387000000
C    -4.009000000     2.237000000     1.446000000
H    -4.370000000     1.589000000     2.241000000
C    -1.659000000     2.401000000     2.478000000
O    -0.766000000     3.517000000     2.782000000
H    -1.058000000     1.544000000     2.142000000
O    -2.336000000     1.981000000     3.694000000
C    -1.787000000     0.910000000     4.334000000
C    -2.517000000    -0.262000000     4.085000000
H    -3.532000000    -0.195000000     3.701000000
C    -1.831000000    -1.493000000     4.297000000
O    -2.445000000    -2.582000000     3.831000000
C    -0.499000000    -1.554000000     4.849000000
C     0.239000000    -2.890000000     4.964000000
H     0.989000000    -2.810000000     5.754000000
C     0.892000000    -3.417000000     3.659000000
C     2.174000000    -3.041000000     3.455000000
H     2.719000000    -2.406000000     4.149000000
H    -0.479000000    -3.538000000     5.471000000
C     0.153000000    -0.318000000     5.110000000
H     1.182000000    -0.264000000     5.455000000
C    -0.492000000     0.893000000     4.826000000
C     0.352000000     2.149000000     5.008000000
H     0.924000000     2.072000000     5.935000000
H    -0.345000000     2.985000000     5.105000000
C     1.223000000     2.595000000     3.841000000
C     2.595000000     2.348000000     3.787000000
H     3.073000000     1.799000000     4.595000000
C     0.598000000     3.307000000     2.795000000
C     1.354000000     3.814000000     1.716000000
H     0.815000000     4.182000000     0.847000000
C     2.734000000     3.525000000     1.659000000
O     3.403000000     3.916000000     0.541000000
C     3.502000000     3.071000000    -0.591000000
C     3.415000000     3.763000000    -1.926000000
C     3.950000000     3.294000000    -3.163000000
H     4.550000000     2.388000000    -3.128000000
C     2.699000000     4.933000000    -1.984000000
H     2.139000000     5.414000000    -1.186000000
O     4.664000000     2.335000000    -0.480000000
H     2.685000000     2.338000000    -0.517000000
C     3.347000000     2.711000000     2.661000000
C     4.760000000     2.114000000     2.567000000
H     5.284000000     1.835000000     3.484000000
H     5.351000000     2.887000000     2.071000000
C     4.660000000     0.960000000     1.550000000
C     4.514000000    -0.339000000     2.119000000
H     4.679000000    -0.458000000     3.186000000
C     4.614000000     1.064000000     0.131000000
C     4.427000000    -0.042000000    -0.672000000
H     4.306000000     0.079000000    -1.745000000
C     4.324000000    -1.362000000    -0.107000000
O     4.060000000    -2.425000000    -0.911000000
C     2.679000000    -2.796000000    -0.869000000
C     2.041000000    -2.780000000    -2.260000000
C     2.572000000    -2.027000000    -3.297000000
H     3.432000000    -1.389000000    -3.111000000
C     0.757000000    -3.390000000    -2.502000000
H     0.313000000    -4.024000000    -1.738000000
O     2.605000000    -4.062000000    -0.110000000
H     2.053000000    -2.050000000    -0.356000000
C     4.416000000    -1.481000000     1.286000000
C     4.264000000    -2.872000000     2.011000000
H     4.634000000    -2.751000000     3.031000000
H     4.859000000    -3.576000000     1.426000000
C     2.837000000    -3.385000000     2.246000000
C     2.073000000    -3.937000000     1.184000000
C     0.752000000    -4.336000000     1.433000000
H     0.125000000    -4.679000000     0.614000000
C     0.161000000    -4.071000000     2.643000000
O    -1.196000000    -4.246000000     2.772000000
C    -2.015000000    -3.132000000     2.551000000
H    -1.388000000    -2.407000000     2.011000000
C    -3.237000000    -3.414000000     1.709000000
C    -4.457000000    -2.959000000     1.977000000
H    -4.660000000    -2.176000000     2.703000000
C    -3.108000000    -4.398000000     0.698000000
H    -2.228000000    -4.999000000     0.483000000
C    -4.228000000    -4.777000000    -0.058000000
O    -4.120000000    -5.785000000    -0.952000000
C    -5.456000000    -4.289000000     0.197000000
H    -6.331000000    -4.577000000    -0.379000000
C    -5.571000000    -3.350000000     1.236000000
O    -6.825000000    -2.700000000     1.498000000
C    -6.922000000    -1.397000000     1.863000000
C    -6.591000000    -0.403000000     0.930000000
H    -6.212000000    -0.763000000    -0.023000000
C    -7.300000000    -1.039000000     3.143000000
H    -7.619000000    -1.833000000     3.814000000
C    -7.443000000     0.299000000     3.485000000
H    -7.835000000     0.593000000     4.455000000
C    -7.030000000     1.291000000     2.560000000
H    -6.992000000     2.357000000     2.769000000
C    -6.643000000     0.955000000     1.262000000
O    -6.133000000     1.870000000     0.377000000
C    -4.804000000     2.286000000     0.320000000
C    -4.398000000     3.032000000    -0.837000000
H    -4.990000000     3.193000000    -1.735000000
C    -3.123000000     3.495000000    -0.941000000
O    -2.609000000     4.088000000    -2.100000000
C    -1.819000000     5.183000000    -2.079000000
C    -0.585000000     5.304000000    -2.748000000
H    -0.343000000     4.429000000    -3.346000000
C    -2.413000000     6.271000000    -1.476000000
H    -3.387000000     6.177000000    -1.003000000
C    -1.747000000     7.507000000    -1.437000000
H    -2.175000000     8.388000000    -0.967000000
C    -0.459000000     7.551000000    -1.878000000
H     0.109000000     8.477000000    -1.876000000
C     0.189000000     6.446000000    -2.521000000
O     1.417000000     6.575000000    -3.093000000
C     2.328000000     5.505000000    -3.202000000
C     2.776000000     4.954000000    -4.397000000
H     2.400000000     5.329000000    -5.345000000
C     3.643000000     3.870000000    -4.411000000
O     3.825000000     3.274000000    -5.577000000
C     4.259000000     1.962000000    -5.484000000
C     3.244000000     0.965000000    -5.576000000
H     2.214000000     1.281000000    -5.723000000
C     5.595000000     1.601000000    -5.611000000
H     6.394000000     2.334000000    -5.691000000
C     5.995000000     0.267000000    -5.611000000
H     7.043000000    -0.020000000    -5.567000000
C     5.011000000    -0.727000000    -5.495000000
H     5.311000000    -1.771000000    -5.445000000
C     3.670000000    -0.361000000    -5.502000000
O     2.751000000    -1.386000000    -5.567000000
C     2.063000000    -1.982000000    -4.513000000
C     0.935000000    -2.723000000    -4.850000000
H     0.531000000    -2.580000000    -5.849000000
C     0.233000000    -3.334000000    -3.816000000
O    -0.969000000    -3.937000000    -4.086000000
C    -1.427000000    -5.027000000    -3.413000000
C    -1.084000000    -6.303000000    -3.807000000
H    -0.407000000    -6.525000000    -4.627000000
C    -1.647000000    -7.389000000    -3.157000000
H    -1.355000000    -8.395000000    -3.447000000
C    -2.689000000    -7.140000000    -2.266000000
H    -3.210000000    -8.027000000    -1.915000000
C    -3.087000000    -5.881000000    -1.861000000
C    -2.397000000    -4.793000000    -2.429000000
H    -2.763000000    -3.785000000    -2.249000000
C    -2.310000000    -0.501000000    -0.609000000
H    -3.374000000    -0.724000000    -0.641000000
C    -1.576000000    -0.429000000     0.556000000
H    -2.183000000    -0.427000000     1.458000000
C    -0.178000000    -0.241000000     0.627000000
H     0.338000000     0.123000000     1.537000000
C     0.461000000    -0.043000000    -0.579000000
H     1.539000000     0.092000000    -0.538000000
C    -0.274000000    -0.147000000    -1.801000000
H     0.270000000    -0.133000000    -2.742000000
C    -1.639000000    -0.331000000    -1.852000000
C    -2.483000000    -0.255000000    -3.127000000
O    -2.001000000     0.032000000    -4.198000000
O    -3.719000000    -0.286000000    -3.031000000
O    -8.757000000    -0.881000000    -1.711000000
H    -9.168000000    -1.664000000    -1.345000000
H    -7.898000000    -1.179000000    -2.010000000
O    -2.292000000     5.413000000    -5.452000000
H    -1.737000000     6.168000000    -5.647000000
H    -2.432000000     4.993000000    -6.301000000
O    -2.073000000     2.360000000    -5.103000000
H    -1.453000000     2.844000000    -4.557000000
H    -2.101000000     1.485000000    -4.717000000
O    -3.571000000    -1.487000000    -6.018000000
H    -3.455000000    -0.828000000    -5.334000000
H    -2.737000000    -1.956000000    -6.042000000
O    -6.184000000    -5.630000000    -3.341000000
H    -6.507000000    -5.436000000    -4.221000000
H    -5.496000000    -4.982000000    -3.190000000
O    -2.827000000     4.081000000    -7.824000000
H    -3.500000000     3.406000000    -7.733000000
H    -2.529000000     4.000000000    -8.730000000
O    -0.974000000    -0.420000000    -6.720000000
H    -0.678000000     0.475000000    -6.886000000
H    -1.388000000    -0.379000000    -5.858000000
O    -4.371000000    -5.530000000    -6.833000000
H    -3.871000000    -4.793000000    -7.185000000
H    -5.283000000    -5.243000000    -6.875000000
O     1.587000000    -2.049000000    -8.535000000
H     1.467000000    -1.872000000    -7.602000000
H     1.995000000    -1.255000000    -8.880000000
O    -6.601000000     1.404000000    -2.852000000
H    -6.273000000     0.660000000    -2.346000000
H    -7.396000000     1.674000000    -2.391000000
O    -4.878000000    -3.242000000    -4.383000000
H    -5.293000000    -3.857000000    -4.988000000
H    -4.482000000    -2.580000000    -4.948000000
O    -1.636000000    -0.934000000    -9.139000000
H    -1.420000000    -0.894000000    -8.208000000
H    -1.280000000    -1.773000000    -9.432000000
O    -5.158000000     4.631000000    -3.883000000
H    -4.246000000     4.920000000    -3.896000000
H    -5.230000000     4.027000000    -4.621000000
O    -7.503000000     0.418000000    -5.595000000
H    -7.032000000     1.019000000    -5.017000000
H    -6.834000000     0.093000000    -6.198000000
O    -4.642000000     1.544000000    -5.277000000
H    -4.769000000     1.219000000    -4.386000000
H    -3.697000000     1.674000000    -5.353000000
O    -5.872000000    -0.622000000    -7.576000000
H    -5.382000000    -0.531000000    -8.393000000
H    -5.202000000    -0.786000000    -6.912000000
O    -5.872000000    -1.541000000    -2.411000000
H    -5.704000000    -2.372000000    -2.854000000
H    -5.151000000    -0.974000000    -2.683000000
O    -5.320000000     2.741000000    -7.589000000
H    -5.015000000     2.223000000    -6.844000000
H    -6.170000000     3.082000000    -7.311000000
O     0.045000000     2.086000000    -7.030000000
H     0.426000000     2.921000000    -7.300000000
H    -0.660000000     2.327000000    -6.430000000
