215
-1438.34054
C    -2.318000000     4.773000000     1.393000000
H    -1.386000000     5.332000000     1.448000000
C    -2.633000000     3.574000000     2.056000000
C    -3.843000000     2.922000000     1.772000000
H    -3.969000000     1.923000000     2.183000000
C    -1.578000000     2.725000000     2.859000000
O    -0.538000000     3.657000000     3.244000000
H    -1.220000000     1.888000000     2.241000000
O    -2.144000000     2.161000000     4.075000000
C    -1.633000000     0.937000000     4.439000000
C    -2.463000000    -0.062000000     4.030000000
H    -3.460000000    -0.009000000     3.599000000
C    -1.948000000    -1.388000000     4.089000000
O    -2.689000000    -2.408000000     3.685000000
C    -0.666000000    -1.640000000     4.627000000
C    -0.072000000    -3.061000000     4.865000000
H     0.717000000    -2.880000000     5.598000000
C     0.617000000    -3.478000000     3.598000000
C     1.983000000    -3.168000000     3.374000000
H     2.566000000    -2.752000000     4.192000000
H    -0.875000000    -3.783000000     5.030000000
C     0.077000000    -0.548000000     5.119000000
H     1.080000000    -0.620000000     5.533000000
C    -0.356000000     0.702000000     4.946000000
C     0.531000000     1.913000000     5.300000000
H     1.291000000     1.725000000     6.061000000
H    -0.122000000     2.749000000     5.559000000
C     1.330000000     2.290000000     4.027000000
C     2.586000000     1.764000000     3.737000000
H     3.095000000     1.029000000     4.355000000
C     0.802000000     3.264000000     3.119000000
C     1.563000000     3.682000000     2.029000000
H     1.071000000     4.404000000     1.382000000
C     2.806000000     3.169000000     1.717000000
O     3.404000000     3.520000000     0.561000000
C     3.412000000     2.461000000    -0.502000000
C     2.866000000     2.924000000    -1.875000000
C     3.387000000     2.477000000    -3.089000000
H     4.222000000     1.783000000    -3.113000000
C     1.869000000     3.861000000    -1.945000000
H     1.376000000     4.150000000    -1.020000000
O     4.655000000     1.687000000    -0.534000000
H     2.740000000     1.638000000    -0.216000000
C     3.340000000     2.197000000     2.580000000
C     4.718000000     1.696000000     2.314000000
H     5.197000000     1.463000000     3.266000000
H     5.371000000     2.458000000     1.882000000
C     4.791000000     0.475000000     1.507000000
C     4.682000000    -0.707000000     2.106000000
H     4.682000000    -0.778000000     3.191000000
C     4.763000000     0.537000000     0.120000000
C     4.670000000    -0.598000000    -0.643000000
H     4.496000000    -0.557000000    -1.715000000
C     4.460000000    -1.837000000    -0.064000000
O     4.152000000    -2.863000000    -0.967000000
C     2.801000000    -3.161000000    -1.096000000
C     2.340000000    -3.478000000    -2.541000000
C     2.899000000    -2.671000000    -3.621000000
H     3.665000000    -1.957000000    -3.329000000
C     1.348000000    -4.439000000    -2.854000000
H     0.949000000    -5.120000000    -2.107000000
O     2.337000000    -4.209000000    -0.191000000
H     2.248000000    -2.232000000    -0.894000000
C     4.535000000    -1.904000000     1.312000000
C     4.121000000    -3.194000000     2.039000000
H     4.618000000    -3.229000000     3.010000000
H     4.398000000    -4.084000000     1.470000000
C     2.607000000    -3.374000000     2.130000000
C     1.823000000    -3.894000000     1.079000000
C     0.543000000    -4.322000000     1.327000000
H     0.043000000    -4.791000000     0.483000000
C    -0.069000000    -4.120000000     2.549000000
O    -1.475000000    -4.169000000     2.582000000
C    -2.201000000    -2.998000000     2.459000000
H    -1.533000000    -2.250000000     2.006000000
C    -3.300000000    -3.031000000     1.456000000
C    -4.556000000    -2.339000000     1.600000000
H    -4.748000000    -1.837000000     2.544000000
C    -3.056000000    -3.699000000     0.206000000
H    -2.111000000    -4.187000000    -0.020000000
C    -4.021000000    -3.662000000    -0.819000000
O    -3.948000000    -4.337000000    -2.005000000
C    -5.265000000    -2.984000000    -0.645000000
H    -6.083000000    -2.951000000    -1.360000000
C    -5.457000000    -2.283000000     0.559000000
O    -6.697000000    -1.675000000     0.726000000
C    -6.948000000    -0.437000000     1.233000000
C    -6.176000000     0.656000000     0.794000000
H    -5.407000000     0.520000000     0.037000000
C    -7.917000000    -0.232000000     2.195000000
H    -8.460000000    -1.112000000     2.529000000
C    -8.184000000     1.105000000     2.668000000
H    -8.902000000     1.304000000     3.460000000
C    -7.468000000     2.169000000     2.172000000
H    -7.764000000     3.153000000     2.524000000
C    -6.484000000     1.925000000     1.249000000
O    -5.936000000     3.020000000     0.588000000
C    -4.714000000     3.582000000     0.936000000
C    -4.454000000     4.828000000     0.329000000
H    -5.216000000     5.247000000    -0.323000000
C    -3.297000000     5.428000000     0.668000000
O    -2.970000000     6.567000000     0.029000000
C    -1.921000000     6.716000000    -0.775000000
C    -1.504000000     5.729000000    -1.581000000
H    -1.986000000     4.759000000    -1.491000000
C    -1.282000000     7.951000000    -0.665000000
H    -1.688000000     8.704000000     0.006000000
C    -0.089000000     8.094000000    -1.366000000
H     0.441000000     9.032000000    -1.221000000
C     0.423000000     7.070000000    -2.275000000
H     1.282000000     7.271000000    -2.910000000
C    -0.318000000     5.887000000    -2.318000000
O     0.109000000     4.947000000    -3.199000000
C     1.257000000     4.179000000    -3.139000000
C     1.768000000     3.760000000    -4.314000000
H     1.255000000     4.073000000    -5.220000000
C     2.859000000     2.919000000    -4.347000000
O     3.400000000     2.488000000    -5.532000000
C     4.062000000     1.285000000    -5.647000000
C     3.329000000     0.107000000    -5.395000000
H     2.334000000     0.150000000    -4.960000000
C     5.405000000     1.218000000    -6.144000000
H     5.981000000     2.140000000    -6.138000000
C     5.959000000     0.004000000    -6.413000000
H     7.024000000    -0.033000000    -6.629000000
C     5.158000000    -1.139000000    -6.271000000
H     5.620000000    -2.105000000    -6.459000000
C     3.918000000    -1.095000000    -5.813000000
O     3.151000000    -2.253000000    -5.851000000
C     2.431000000    -2.837000000    -4.909000000
C     1.431000000    -3.741000000    -5.246000000
H     0.994000000    -3.881000000    -6.232000000
C     0.926000000    -4.598000000    -4.191000000
O    -0.088000000    -5.445000000    -4.558000000
C    -0.989000000    -5.809000000    -3.555000000
C    -0.913000000    -7.065000000    -2.957000000
H    -0.199000000    -7.859000000    -3.162000000
C    -1.925000000    -7.318000000    -1.984000000
H    -1.996000000    -8.281000000    -1.485000000
C    -2.930000000    -6.389000000    -1.635000000
H    -3.678000000    -6.585000000    -0.871000000
C    -2.911000000    -5.190000000    -2.313000000
C    -1.975000000    -4.862000000    -3.255000000
H    -2.043000000    -3.917000000    -3.786000000
C    -2.081000000    -0.826000000    -1.497000000
H    -2.588000000    -1.699000000    -1.899000000
C    -0.875000000    -0.993000000    -0.827000000
H    -0.385000000    -1.960000000    -0.743000000
C    -0.242000000     0.046000000    -0.172000000
H     0.654000000    -0.121000000     0.357000000
C    -0.763000000     1.305000000    -0.243000000
H    -0.294000000     2.199000000     0.160000000
C    -1.914000000     1.483000000    -1.028000000
H    -2.333000000     2.479000000    -0.916000000
C    -2.613000000     0.458000000    -1.669000000
C    -4.078000000     0.631000000    -2.168000000
O    -4.511000000     1.764000000    -2.260000000
O    -4.663000000    -0.285000000    -2.723000000
O    -8.902000000     3.850000000    -2.456000000
H    -9.276000000     3.001000000    -2.219000000
H    -8.025000000     3.643000000    -2.779000000
O    -4.634000000    -5.153000000    -4.937000000
H    -4.249000000    -5.845000000    -5.474000000
H    -4.065000000    -5.102000000    -4.169000000
O    -0.424000000     1.380000000    -5.556000000
H    -0.479000000     1.780000000    -6.424000000
H    -0.987000000     1.925000000    -5.006000000
O    -3.404000000     4.150000000    -3.988000000
H    -3.269000000     5.009000000    -3.587000000
H    -3.607000000     3.572000000    -3.252000000
O    -6.073000000     4.092000000    -6.639000000
H    -5.968000000     5.043000000    -6.670000000
H    -6.339000000     3.910000000    -5.738000000
O    -6.660000000     5.986000000    -3.038000000
H    -7.002000000     6.533000000    -3.746000000
H    -6.543000000     6.589000000    -2.304000000
O    -0.781000000    -1.474000000    -5.381000000
H    -0.726000000    -0.520000000    -5.321000000
H     0.128000000    -1.761000000    -5.470000000
O    -5.984000000    -2.252000000    -6.847000000
H    -5.308000000    -2.587000000    -6.257000000
H    -6.736000000    -2.085000000    -6.279000000
O    -3.681000000    -1.762000000    -4.677000000
H    -2.743000000    -1.667000000    -4.841000000
H    -3.870000000    -1.120000000    -3.992000000
O    -9.316000000    -1.955000000    -4.475000000
H    -9.514000000    -2.890000000    -4.514000000
H    -8.370000000    -1.916000000    -4.333000000
O    -2.883000000     0.547000000    -7.666000000
H    -2.398000000     1.364000000    -7.781000000
H    -2.995000000     0.467000000    -6.719000000
O    -8.096000000     5.537000000    -0.213000000
H    -8.926000000     5.070000000    -0.120000000
H    -7.639000000     5.075000000    -0.916000000
O    -9.471000000     1.169000000    -0.529000000
H    -9.199000000     0.802000000     0.313000000
H    -8.718000000     1.032000000    -1.104000000
O    -6.358000000     3.303000000    -3.352000000
H    -5.532000000     2.903000000    -3.078000000
H    -6.173000000     4.242000000    -3.375000000
O    -7.447000000     1.346000000    -4.944000000
H    -7.786000000     0.703000000    -4.322000000
H    -7.171000000     2.084000000    -4.400000000
O    -4.620000000     1.051000000    -5.381000000
H    -5.540000000     0.993000000    -5.642000000
H    -4.547000000     0.460000000    -4.632000000
O    -6.592000000    -1.546000000    -4.036000000
H    -6.104000000    -2.369000000    -4.013000000
H    -6.027000000    -0.920000000    -3.584000000
O    -7.169000000     0.913000000    -2.126000000
H    -6.526000000     1.620000000    -2.066000000
H    -6.645000000     0.126000000    -2.275000000
O    -2.749000000     3.012000000    -6.341000000
H    -3.318000000     2.259000000    -6.185000000
H    -2.759000000     3.496000000    -5.515000000
