215
-1426.64652
C    -2.594000000     3.498000000     2.095000000
H    -1.569000000     3.739000000     1.823000000
C    -2.664000000     2.518000000     3.104000000
C    -3.954000000     1.983000000     3.289000000
H    -4.060000000     1.061000000     3.854000000
C    -1.462000000     1.947000000     3.808000000
O    -0.501000000     2.888000000     4.319000000
H    -1.005000000     1.353000000     3.003000000
O    -1.871000000     0.938000000     4.765000000
C    -1.237000000    -0.276000000     4.643000000
C    -1.954000000    -1.180000000     3.869000000
H    -3.008000000    -1.058000000     3.636000000
C    -1.362000000    -2.405000000     3.587000000
O    -2.185000000    -3.197000000     2.862000000
C    -0.011000000    -2.630000000     3.985000000
C     0.641000000    -4.004000000     3.726000000
H     1.327000000    -4.231000000     4.544000000
C     1.214000000    -4.051000000     2.298000000
C     2.569000000    -3.780000000     2.166000000
H     3.131000000    -3.526000000     3.061000000
H    -0.096000000    -4.808000000     3.787000000
C     0.705000000    -1.627000000     4.607000000
H     1.737000000    -1.841000000     4.871000000
C     0.108000000    -0.427000000     4.945000000
C     0.936000000     0.658000000     5.682000000
H     1.622000000     0.093000000     6.317000000
H     0.255000000     1.183000000     6.355000000
C     1.556000000     1.627000000     4.633000000
C     2.818000000     1.355000000     4.141000000
H     3.340000000     0.448000000     4.434000000
C     0.842000000     2.723000000     4.074000000
C     1.479000000     3.454000000     3.124000000
H     0.986000000     4.300000000     2.651000000
C     2.731000000     3.102000000     2.505000000
O     3.153000000     3.721000000     1.414000000
C     3.140000000     2.950000000     0.184000000
C     2.474000000     3.687000000    -0.975000000
C     2.579000000     3.200000000    -2.311000000
H     3.103000000     2.255000000    -2.426000000
C     1.678000000     4.849000000    -0.755000000
H     1.401000000     5.197000000     0.237000000
O     4.468000000     2.498000000    -0.224000000
H     2.490000000     2.088000000     0.396000000
C     3.440000000     2.048000000     3.108000000
C     4.810000000     1.597000000     2.635000000
H     5.370000000     1.081000000     3.419000000
H     5.274000000     2.567000000     2.448000000
C     4.746000000     0.637000000     1.415000000
C     4.679000000    -0.774000000     1.686000000
H     4.632000000    -1.174000000     2.696000000
C     4.673000000     1.121000000     0.083000000
C     4.518000000     0.199000000    -0.945000000
H     4.412000000     0.499000000    -1.984000000
C     4.439000000    -1.195000000    -0.706000000
O     4.229000000    -2.140000000    -1.728000000
C     2.911000000    -2.555000000    -2.000000000
C     2.591000000    -2.542000000    -3.502000000
C     3.246000000    -1.681000000    -4.437000000
H     4.139000000    -1.170000000    -4.087000000
C     1.649000000    -3.386000000    -4.079000000
H     1.163000000    -4.012000000    -3.335000000
O     2.804000000    -3.891000000    -1.475000000
H     2.197000000    -1.893000000    -1.488000000
C     4.601000000    -1.695000000     0.581000000
C     4.569000000    -3.164000000     0.801000000
H     5.175000000    -3.375000000     1.684000000
H     5.108000000    -3.632000000    -0.026000000
C     3.153000000    -3.752000000     0.895000000
C     2.329000000    -4.053000000    -0.230000000
C     0.997000000    -4.355000000    -0.090000000
H     0.393000000    -4.493000000    -0.982000000
C     0.429000000    -4.409000000     1.183000000
O    -0.939000000    -4.649000000     1.313000000
C    -1.776000000    -3.500000000     1.561000000
H    -1.154000000    -2.673000000     1.186000000
C    -3.073000000    -3.486000000     0.620000000
C    -4.288000000    -2.830000000     1.076000000
H    -4.419000000    -2.266000000     1.996000000
C    -2.850000000    -3.760000000    -0.713000000
H    -1.852000000    -3.885000000    -1.125000000
C    -3.865000000    -3.643000000    -1.614000000
O    -3.687000000    -3.827000000    -2.949000000
C    -5.091000000    -3.120000000    -1.203000000
H    -5.900000000    -2.961000000    -1.912000000
C    -5.262000000    -2.576000000     0.092000000
O    -6.533000000    -2.075000000     0.303000000
C    -6.966000000    -1.312000000     1.345000000
C    -6.307000000    -0.093000000     1.558000000
H    -5.420000000     0.148000000     0.977000000
C    -8.253000000    -1.494000000     1.833000000
H    -8.747000000    -2.455000000     1.718000000
C    -8.832000000    -0.584000000     2.746000000
H    -9.780000000    -0.783000000     3.239000000
C    -8.112000000     0.590000000     3.015000000
H    -8.298000000     1.300000000     3.816000000
C    -6.916000000     0.864000000     2.402000000
O    -6.331000000     2.001000000     2.915000000
C    -5.054000000     2.495000000     2.634000000
C    -4.922000000     3.519000000     1.691000000
H    -5.760000000     3.858000000     1.088000000
C    -3.668000000     4.059000000     1.465000000
O    -3.563000000     4.916000000     0.403000000
C    -2.553000000     5.846000000     0.309000000
C    -1.554000000     5.767000000    -0.621000000
H    -1.484000000     4.893000000    -1.264000000
C    -2.486000000     6.900000000     1.228000000
H    -3.116000000     6.840000000     2.112000000
C    -1.498000000     7.884000000     1.183000000
H    -1.416000000     8.673000000     1.927000000
C    -0.603000000     7.916000000     0.121000000
H     0.034000000     8.766000000    -0.111000000
C    -0.576000000     6.800000000    -0.692000000
O     0.404000000     6.636000000    -1.685000000
C     1.044000000     5.474000000    -1.833000000
C     1.342000000     4.990000000    -3.141000000
H     1.014000000     5.599000000    -3.979000000
C     2.028000000     3.839000000    -3.387000000
O     2.284000000     3.513000000    -4.712000000
C     3.208000000     2.659000000    -5.169000000
C     2.838000000     1.388000000    -5.619000000
H     1.810000000     1.039000000    -5.559000000
C     4.572000000     3.016000000    -5.245000000
H     4.872000000     4.034000000    -5.008000000
C     5.514000000     2.060000000    -5.723000000
H     6.557000000     2.346000000    -5.832000000
C     5.125000000     0.881000000    -6.251000000
H     5.800000000     0.116000000    -6.625000000
C     3.791000000     0.477000000    -6.133000000
O     3.530000000    -0.800000000    -6.590000000
C     2.883000000    -1.693000000    -5.793000000
C     1.796000000    -2.421000000    -6.241000000
H     1.426000000    -2.374000000    -7.262000000
C     1.207000000    -3.320000000    -5.368000000
O     0.152000000    -4.090000000    -5.826000000
C    -0.737000000    -4.687000000    -4.962000000
C    -0.616000000    -6.122000000    -4.685000000
H     0.166000000    -6.624000000    -5.250000000
C    -1.467000000    -6.739000000    -3.778000000
H    -1.292000000    -7.771000000    -3.484000000
C    -2.463000000    -5.979000000    -3.159000000
H    -3.064000000    -6.441000000    -2.379000000
C    -2.702000000    -4.646000000    -3.499000000
C    -1.818000000    -4.040000000    -4.437000000
H    -1.903000000    -2.993000000    -4.715000000
C    -2.395000000     0.317000000    -1.480000000
H    -3.452000000     0.390000000    -1.234000000
C    -1.487000000     0.444000000    -0.397000000
H    -1.836000000     0.618000000     0.618000000
C    -0.165000000     0.230000000    -0.596000000
H     0.422000000     0.355000000     0.349000000
C     0.279000000    -0.128000000    -1.900000000
H     1.351000000    -0.233000000    -2.048000000
C    -0.589000000    -0.206000000    -2.981000000
H    -0.213000000    -0.481000000    -3.963000000
C    -1.959000000     0.123000000    -2.814000000
C    -2.858000000     0.103000000    -4.059000000
O    -2.469000000    -0.486000000    -5.022000000
O    -3.994000000     0.545000000    -3.963000000
O    -5.304000000     4.834000000    -3.915000000
H    -5.023000000     5.378000000    -4.651000000
H    -5.108000000     3.939000000    -4.191000000
O    -1.285000000     3.079000000    -3.795000000
H    -2.097000000     2.822000000    -3.360000000
H    -0.611000000     2.983000000    -3.121000000
O    -4.424000000     0.344000000    -7.408000000
H    -4.009000000    -0.297000000    -6.830000000
H    -3.714000000     0.652000000    -7.971000000
O    -1.154000000     0.781000000    -6.738000000
H    -1.382000000     1.677000000    -6.489000000
H    -1.717000000     0.230000000    -6.194000000
O    -5.904000000     1.234000000    -2.278000000
H    -5.022000000     1.085000000    -2.619000000
H    -6.484000000     0.886000000    -2.955000000
O    -3.785000000    -1.729000000    -9.754000000
H    -3.889000000    -2.672000000    -9.878000000
H    -3.055000000    -1.646000000    -9.141000000
O    -4.155000000    -2.923000000    -6.681000000
H    -3.658000000    -3.484000000    -7.277000000
H    -3.490000000    -2.400000000    -6.234000000
O    -0.513000000     3.513000000    -6.380000000
H     0.132000000     4.219000000    -6.388000000
H    -0.810000000     3.470000000    -5.471000000
O    -2.064000000     0.976000000    -9.550000000
H    -1.697000000     1.848000000    -9.696000000
H    -1.718000000     0.710000000    -8.698000000
O    -7.399000000     3.458000000    -1.852000000
H    -6.743000000     3.833000000    -2.440000000
H    -7.031000000     2.613000000    -1.591000000
O     1.014000000     1.432000000    -8.398000000
H     0.497000000     1.038000000    -7.695000000
H     0.606000000     2.286000000    -8.546000000
O    -6.694000000    -2.282000000    -8.581000000
H    -5.955000000    -2.120000000    -7.993000000
H    -6.777000000    -3.235000000    -8.604000000
O    -8.092000000     0.735000000    -4.701000000
H    -8.734000000     0.116000000    -4.354000000
H    -7.551000000     0.213000000    -5.294000000
O    -6.392000000    -4.022000000    -6.008000000
H    -6.294000000    -4.747000000    -6.625000000
H    -5.629000000    -3.467000000    -6.167000000
O    -4.694000000     2.717000000    -5.353000000
H    -4.337000000     2.579000000    -6.230000000
H    -4.607000000     1.867000000    -4.922000000
O    -7.365000000     0.612000000    -7.557000000
H    -7.584000000    -0.226000000    -7.965000000
H    -6.411000000     0.598000000    -7.478000000
O    -5.765000000    -0.942000000    -5.216000000
H    -5.272000000    -1.757000000    -5.117000000
H    -5.216000000    -0.278000000    -4.799000000
O    -7.485000000     3.343000000    -6.969000000
H    -6.664000000     3.425000000    -6.483000000
H    -7.441000000     2.474000000    -7.367000000
O    -1.630000000     6.114000000    -4.608000000
H    -1.961000000     6.336000000    -5.478000000
H    -1.592000000     5.157000000    -4.604000000
