215
-1465.76776
C    -3.176000000     3.569000000     2.051000000
H    -2.381000000     4.121000000     2.546000000
C    -3.413000000     2.245000000     2.434000000
C    -4.604000000     1.632000000     2.036000000
H    -4.931000000     0.629000000     2.298000000
C    -2.370000000     1.469000000     3.089000000
O    -1.426000000     2.354000000     3.750000000
H    -1.793000000     1.021000000     2.266000000
O    -2.877000000     0.390000000     3.909000000
C    -2.129000000    -0.752000000     4.019000000
C    -2.557000000    -1.777000000     3.202000000
H    -3.351000000    -1.635000000     2.474000000
C    -1.906000000    -2.974000000     3.120000000
O    -2.487000000    -3.920000000     2.302000000
C    -0.691000000    -3.126000000     3.742000000
C     0.151000000    -4.392000000     3.575000000
H     0.764000000    -4.562000000     4.463000000
C     1.020000000    -4.307000000     2.364000000
C     2.352000000    -3.879000000     2.446000000
H     2.690000000    -3.456000000     3.388000000
H    -0.500000000    -5.266000000     3.504000000
C    -0.160000000    -2.061000000     4.461000000
H     0.819000000    -2.118000000     4.929000000
C    -0.898000000    -0.865000000     4.701000000
C    -0.271000000     0.313000000     5.480000000
H     0.382000000    -0.008000000     6.293000000
H    -1.055000000     0.905000000     5.957000000
C     0.521000000     1.066000000     4.450000000
C     1.935000000     0.879000000     4.423000000
H     2.439000000     0.039000000     4.893000000
C    -0.016000000     2.135000000     3.763000000
C     0.757000000     2.901000000     2.945000000
H     0.273000000     3.646000000     2.318000000
C     2.164000000     2.828000000     2.968000000
O     2.878000000     3.632000000     2.180000000
C     3.048000000     3.070000000     0.869000000
C     2.741000000     4.109000000    -0.222000000
C     3.403000000     3.981000000    -1.456000000
H     4.038000000     3.102000000    -1.536000000
C     1.832000000     5.164000000    -0.033000000
H     1.351000000     5.222000000     0.940000000
O     4.403000000     2.548000000     0.732000000
H     2.318000000     2.269000000     0.682000000
C     2.743000000     1.777000000     3.691000000
C     4.248000000     1.498000000     3.512000000
H     4.598000000     0.988000000     4.412000000
H     4.793000000     2.439000000     3.419000000
C     4.390000000     0.632000000     2.214000000
C     4.295000000    -0.799000000     2.305000000
H     4.147000000    -1.220000000     3.296000000
C     4.552000000     1.178000000     0.874000000
C     4.846000000     0.342000000    -0.201000000
H     4.964000000     0.702000000    -1.220000000
C     4.726000000    -1.016000000    -0.020000000
O     4.570000000    -1.824000000    -1.193000000
C     3.201000000    -2.313000000    -1.533000000
C     2.854000000    -2.206000000    -3.039000000
C     2.889000000    -0.942000000    -3.543000000
H     3.108000000    -0.068000000    -2.936000000
C     2.355000000    -3.246000000    -3.837000000
H     2.299000000    -4.248000000    -3.420000000
O     3.220000000    -3.733000000    -1.166000000
H     2.369000000    -1.910000000    -0.937000000
C     4.569000000    -1.630000000     1.199000000
C     4.544000000    -3.171000000     1.411000000
H     4.965000000    -3.495000000     2.365000000
H     5.046000000    -3.577000000     0.531000000
C     3.128000000    -3.734000000     1.319000000
C     2.563000000    -4.062000000     0.023000000
C     1.232000000    -4.417000000    -0.013000000
H     0.724000000    -4.432000000    -0.973000000
C     0.447000000    -4.601000000     1.104000000
O    -0.891000000    -4.855000000     0.935000000
C    -1.882000000    -3.808000000     0.964000000
H    -1.370000000    -2.834000000     0.971000000
C    -2.920000000    -3.837000000    -0.123000000
C    -4.320000000    -3.500000000     0.088000000
H    -4.619000000    -3.179000000     1.082000000
C    -2.511000000    -4.016000000    -1.432000000
H    -1.487000000    -4.297000000    -1.669000000
C    -3.457000000    -4.047000000    -2.487000000
O    -3.125000000    -4.170000000    -3.800000000
C    -4.770000000    -3.586000000    -2.258000000
H    -5.467000000    -3.488000000    -3.086000000
C    -5.224000000    -3.303000000    -0.981000000
O    -6.523000000    -2.887000000    -0.757000000
C    -6.907000000    -1.820000000     0.049000000
C    -6.485000000    -0.483000000    -0.251000000
H    -5.832000000    -0.249000000    -1.088000000
C    -7.865000000    -2.064000000     1.075000000
H    -8.307000000    -3.057000000     1.075000000
C    -8.169000000    -1.032000000     1.963000000
H    -8.746000000    -1.187000000     2.871000000
C    -7.725000000     0.246000000     1.677000000
H    -7.886000000     1.112000000     2.314000000
C    -6.905000000     0.468000000     0.580000000
O    -6.358000000     1.701000000     0.312000000
C    -5.308000000     2.282000000     1.010000000
C    -4.927000000     3.470000000     0.471000000
H    -5.447000000     3.893000000    -0.385000000
C    -3.875000000     4.179000000     1.003000000
O    -3.572000000     5.440000000     0.509000000
C    -2.425000000     6.253000000     0.702000000
C    -1.440000000     6.285000000    -0.261000000
H    -1.531000000     5.717000000    -1.184000000
C    -2.413000000     7.002000000     1.888000000
H    -3.351000000     7.114000000     2.427000000
C    -1.361000000     7.816000000     2.138000000
H    -1.456000000     8.602000000     2.882000000
C    -0.316000000     7.821000000     1.202000000
H     0.497000000     8.530000000     1.338000000
C    -0.381000000     7.117000000    -0.024000000
O     0.797000000     7.132000000    -0.794000000
C     1.601000000     6.121000000    -1.049000000
C     2.258000000     6.058000000    -2.290000000
H     2.157000000     6.839000000    -3.039000000
C     3.134000000     4.978000000    -2.451000000
O     3.779000000     4.904000000    -3.682000000
C     4.205000000     3.655000000    -4.147000000
C     3.253000000     2.758000000    -4.488000000
H     2.214000000     2.911000000    -4.210000000
C     5.577000000     3.449000000    -4.364000000
H     6.399000000     4.102000000    -4.082000000
C     5.930000000     2.232000000    -4.956000000
H     6.977000000     2.056000000    -5.187000000
C     4.947000000     1.282000000    -5.282000000
H     5.218000000     0.292000000    -5.639000000
C     3.619000000     1.525000000    -5.095000000
O     2.657000000     0.636000000    -5.465000000
C     2.492000000    -0.650000000    -4.903000000
C     1.968000000    -1.703000000    -5.626000000
H     1.641000000    -1.489000000    -6.640000000
C     1.886000000    -2.975000000    -5.092000000
O     1.184000000    -3.947000000    -5.827000000
C     0.133000000    -4.686000000    -5.393000000
C     0.248000000    -6.041000000    -5.309000000
H     1.205000000    -6.489000000    -5.568000000
C    -0.751000000    -6.796000000    -4.758000000
H    -0.600000000    -7.867000000    -4.646000000
C    -1.964000000    -6.207000000    -4.272000000
H    -2.784000000    -6.693000000    -3.749000000
C    -2.027000000    -4.800000000    -4.324000000
C    -0.988000000    -4.041000000    -4.875000000
H    -1.028000000    -2.958000000    -4.964000000
C    -1.837000000    -0.317000000    -0.515000000
H    -2.835000000    -0.594000000    -0.184000000
C    -0.746000000    -0.330000000     0.372000000
H    -0.949000000    -0.696000000     1.375000000
C     0.566000000    -0.134000000    -0.093000000
H     1.421000000    -0.224000000     0.554000000
C     0.773000000     0.310000000    -1.424000000
H     1.759000000     0.675000000    -1.701000000
C    -0.289000000     0.439000000    -2.328000000
H    -0.066000000     0.808000000    -3.326000000
C    -1.557000000     0.063000000    -1.882000000
C    -2.688000000     0.204000000    -2.871000000
O    -2.537000000     0.698000000    -4.011000000
O    -3.831000000    -0.080000000    -2.506000000
O    -0.963000000     2.710000000     0.172000000
H    -0.414000000     1.944000000     0.003000000
H    -1.860000000     2.378000000     0.119000000
O    -5.440000000    -2.882000000    -7.646000000
H    -6.212000000    -3.240000000    -7.209000000
H    -4.915000000    -2.509000000    -6.938000000
O    -4.103000000    -0.051000000    -8.255000000
H    -3.231000000    -0.225000000    -8.612000000
H    -4.613000000    -0.829000000    -8.481000000
O    -4.052000000     4.586000000    -5.826000000
H    -4.477000000     4.328000000    -6.643000000
H    -3.481000000     3.850000000    -5.609000000
O    -5.088000000     1.428000000    -5.513000000
H    -5.115000000     1.219000000    -6.447000000
H    -4.168000000     1.325000000    -5.271000000
O     0.059000000     3.957000000    -3.962000000
H    -0.227000000     4.304000000    -3.117000000
H     0.871000000     4.427000000    -4.152000000
O    -1.437000000    -2.501000000    -8.198000000
H    -1.294000000    -1.691000000    -7.708000000
H    -1.829000000    -2.215000000    -9.023000000
O    -5.942000000    -0.807000000    -3.777000000
H    -5.747000000    -0.350000000    -4.595000000
H    -5.167000000    -0.664000000    -3.233000000
O    -4.006000000     2.879000000    -8.149000000
H    -3.300000000     3.171000000    -8.726000000
H    -3.986000000     1.924000000    -8.211000000
O    -4.774000000     5.329000000    -3.370000000
H    -4.773000000     4.384000000    -3.219000000
H    -4.281000000     5.443000000    -4.183000000
O    -3.863000000    -1.572000000    -5.855000000
H    -3.153000000    -0.983000000    -6.110000000
H    -3.874000000    -1.535000000    -4.899000000
O    -1.267000000    -0.190000000    -6.404000000
H    -1.490000000     0.164000000    -5.543000000
H    -1.233000000     0.576000000    -6.977000000
O    -1.961000000     2.704000000    -5.563000000
H    -2.261000000     2.011000000    -4.975000000
H    -1.240000000     3.122000000    -5.093000000
O    -8.576000000    -1.109000000    -2.877000000
H    -9.113000000    -0.317000000    -2.923000000
H    -7.698000000    -0.817000000    -3.120000000
O    -8.532000000     0.273000000    -5.651000000
H    -9.212000000    -0.306000000    -5.995000000
H    -7.772000000    -0.296000000    -5.528000000
O    -1.021000000     1.438000000    -8.742000000
H    -0.506000000     1.384000000    -9.546000000
H    -1.267000000     2.361000000    -8.676000000
O    -9.309000000     1.693000000    -3.512000000
H   -10.082000000     2.015000000    -3.977000000
H    -8.709000000     1.420000000    -4.207000000
O    -5.109000000     2.355000000    -2.881000000
H    -5.240000000     2.055000000    -3.781000000
H    -4.707000000     1.608000000    -2.436000000
O    -7.516000000     3.023000000    -1.713000000
H    -6.601000000     2.820000000    -1.910000000
H    -8.014000000     2.552000000    -2.380000000
