215
-1446.47397
C    -3.053000000     3.351000000     1.392000000
H    -2.248000000     4.044000000     1.625000000
C    -3.166000000     2.145000000     2.012000000
C    -4.286000000     1.278000000     1.756000000
H    -4.374000000     0.328000000     2.277000000
C    -2.146000000     1.730000000     3.000000000
O    -1.544000000     2.838000000     3.736000000
H    -1.337000000     1.259000000     2.423000000
O    -2.655000000     0.846000000     3.973000000
C    -1.799000000    -0.282000000     4.181000000
C    -2.237000000    -1.488000000     3.744000000
H    -3.208000000    -1.609000000     3.269000000
C    -1.433000000    -2.638000000     3.728000000
O    -1.848000000    -3.735000000     2.994000000
C    -0.165000000    -2.536000000     4.339000000
C     0.747000000    -3.747000000     4.258000000
H     1.408000000    -3.728000000     5.127000000
C     1.515000000    -3.780000000     2.951000000
C     2.759000000    -3.153000000     2.937000000
H     3.175000000    -2.672000000     3.819000000
H     0.107000000    -4.629000000     4.335000000
C     0.198000000    -1.281000000     4.903000000
H     1.035000000    -1.354000000     5.593000000
C    -0.523000000    -0.139000000     4.804000000
C     0.015000000     1.136000000     5.487000000
H     0.817000000     0.833000000     6.164000000
H    -0.848000000     1.611000000     5.958000000
C     0.600000000     1.971000000     4.366000000
C     2.022000000     1.978000000     4.226000000
H     2.728000000     1.527000000     4.918000000
C    -0.200000000     2.888000000     3.647000000
C     0.430000000     3.711000000     2.697000000
H    -0.201000000     4.367000000     2.103000000
C     1.768000000     3.562000000     2.413000000
O     2.190000000     4.208000000     1.266000000
C     2.485000000     3.490000000     0.068000000
C     2.169000000     4.296000000    -1.186000000
C     2.724000000     3.987000000    -2.466000000
H     3.255000000     3.049000000    -2.608000000
C     1.294000000     5.353000000    -1.070000000
H     0.897000000     5.676000000    -0.111000000
O     3.919000000     3.092000000     0.065000000
H     1.781000000     2.649000000    -0.012000000
C     2.614000000     2.709000000     3.188000000
C     4.085000000     2.538000000     2.909000000
H     4.656000000     2.375000000     3.826000000
H     4.548000000     3.404000000     2.433000000
C     4.282000000     1.481000000     1.853000000
C     4.434000000     0.133000000     2.178000000
H     4.412000000    -0.144000000     3.229000000
C     4.252000000     1.841000000     0.497000000
C     4.387000000     0.863000000    -0.452000000
H     4.295000000     1.144000000    -1.498000000
C     4.530000000    -0.483000000    -0.132000000
O     4.493000000    -1.385000000    -1.096000000
C     3.274000000    -2.102000000    -1.287000000
C     2.787000000    -2.066000000    -2.748000000
C     3.440000000    -1.237000000    -3.671000000
H     4.426000000    -0.814000000    -3.497000000
C     1.632000000    -2.713000000    -3.056000000
H     1.096000000    -3.323000000    -2.334000000
O     3.527000000    -3.406000000    -0.673000000
H     2.441000000    -1.596000000    -0.778000000
C     4.503000000    -0.897000000     1.224000000
C     4.856000000    -2.375000000     1.614000000
H     5.387000000    -2.437000000     2.566000000
H     5.489000000    -2.926000000     0.915000000
C     3.525000000    -3.073000000     1.760000000
C     3.003000000    -3.680000000     0.596000000
C     1.781000000    -4.281000000     0.635000000
H     1.338000000    -4.743000000    -0.243000000
C     1.036000000    -4.343000000     1.797000000
O    -0.254000000    -4.768000000     1.662000000
C    -1.432000000    -3.896000000     1.681000000
H    -1.195000000    -2.915000000     1.242000000
C    -2.516000000    -4.451000000     0.805000000
C    -3.865000000    -4.111000000     0.997000000
H    -4.119000000    -3.476000000     1.842000000
C    -2.182000000    -5.298000000    -0.288000000
H    -1.154000000    -5.559000000    -0.528000000
C    -3.180000000    -5.698000000    -1.198000000
O    -2.804000000    -6.342000000    -2.385000000
C    -4.531000000    -5.318000000    -0.993000000
H    -5.284000000    -5.612000000    -1.720000000
C    -4.811000000    -4.524000000     0.085000000
O    -6.102000000    -4.059000000     0.308000000
C    -6.469000000    -2.901000000     0.837000000
C    -5.955000000    -1.653000000     0.551000000
H    -5.103000000    -1.659000000    -0.124000000
C    -7.707000000    -2.911000000     1.541000000
H    -8.168000000    -3.867000000     1.774000000
C    -8.254000000    -1.748000000     1.987000000
H    -9.183000000    -1.799000000     2.550000000
C    -7.742000000    -0.523000000     1.577000000
H    -8.241000000     0.399000000     1.864000000
C    -6.610000000    -0.447000000     0.901000000
O    -6.193000000     0.773000000     0.304000000
C    -5.187000000     1.650000000     0.727000000
C    -4.908000000     2.789000000     0.019000000
H    -5.565000000     3.130000000    -0.777000000
C    -3.944000000     3.689000000     0.344000000
O    -3.947000000     4.846000000    -0.447000000
C    -3.072000000     5.841000000    -0.293000000
C    -1.961000000     5.758000000    -1.137000000
H    -1.931000000     4.924000000    -1.834000000
C    -3.324000000     6.827000000     0.626000000
H    -4.243000000     6.827000000     1.206000000
C    -2.345000000     7.807000000     0.773000000
H    -2.417000000     8.633000000     1.475000000
C    -1.264000000     7.893000000    -0.175000000
H    -0.557000000     8.719000000    -0.162000000
C    -1.093000000     6.891000000    -1.131000000
O    -0.132000000     7.080000000    -2.076000000
C     0.819000000     6.079000000    -2.147000000
C     1.368000000     5.745000000    -3.418000000
H     1.079000000     6.241000000    -4.341000000
C     2.284000000     4.674000000    -3.569000000
O     2.649000000     4.225000000    -4.828000000
C     3.472000000     3.256000000    -5.135000000
C     3.017000000     1.943000000    -5.262000000
H     1.990000000     1.661000000    -5.043000000
C     4.800000000     3.571000000    -5.179000000
H     5.094000000     4.616000000    -5.129000000
C     5.722000000     2.554000000    -5.493000000
H     6.778000000     2.809000000    -5.453000000
C     5.225000000     1.297000000    -5.829000000
H     5.933000000     0.589000000    -6.250000000
C     3.858000000     0.982000000    -5.781000000
O     3.486000000    -0.326000000    -5.960000000
C     2.897000000    -1.076000000    -4.938000000
C     1.680000000    -1.655000000    -5.264000000
H     1.158000000    -1.461000000    -6.197000000
C     1.110000000    -2.496000000    -4.325000000
O    -0.068000000    -3.185000000    -4.679000000
C    -0.289000000    -4.461000000    -4.243000000
C     0.644000000    -5.489000000    -4.494000000
H     1.634000000    -5.364000000    -4.926000000
C     0.521000000    -6.725000000    -3.845000000
H     1.297000000    -7.486000000    -3.840000000
C    -0.583000000    -7.087000000    -3.076000000
H    -0.678000000    -8.053000000    -2.586000000
C    -1.591000000    -6.134000000    -3.003000000
C    -1.416000000    -4.868000000    -3.587000000
H    -2.260000000    -4.192000000    -3.472000000
C    -1.653000000    -0.588000000    -0.687000000
H    -2.704000000    -0.827000000    -0.545000000
C    -0.755000000    -0.568000000     0.340000000
H    -1.078000000    -0.807000000     1.350000000
C     0.476000000    -0.110000000     0.076000000
H     1.125000000     0.029000000     0.916000000
C     0.870000000     0.248000000    -1.162000000
H     1.853000000     0.679000000    -1.335000000
C    -0.030000000     0.286000000    -2.207000000
H     0.346000000     0.694000000    -3.142000000
C    -1.358000000    -0.131000000    -1.979000000
C    -2.429000000    -0.216000000    -3.065000000
O    -2.089000000     0.105000000    -4.192000000
O    -3.468000000    -0.833000000    -2.877000000
O    -1.723000000     4.554000000    -4.587000000
H    -1.188000000     3.764000000    -4.513000000
H    -2.467000000     4.290000000    -5.127000000
O    -8.484000000    -2.946000000    -2.659000000
H    -8.599000000    -3.720000000    -2.108000000
H    -7.543000000    -2.776000000    -2.641000000
O    -1.748000000    -4.940000000    -7.389000000
H    -0.803000000    -4.787000000    -7.394000000
H    -2.132000000    -4.067000000    -7.305000000
O    -6.737000000     3.402000000    -4.958000000
H    -6.999000000     4.304000000    -4.769000000
H    -6.384000000     3.077000000    -4.130000000
O    -6.369000000    -1.211000000    -7.021000000
H    -7.304000000    -1.115000000    -6.845000000
H    -6.039000000    -1.729000000    -6.287000000
O    -0.019000000     0.147000000    -7.581000000
H     0.176000000    -0.780000000    -7.445000000
H     0.772000000     0.502000000    -7.986000000
O     0.776000000     4.321000000    -7.008000000
H     0.109000000     3.819000000    -6.540000000
H     1.537000000     4.307000000    -6.428000000
O    -5.668000000    -2.095000000    -2.642000000
H    -5.559000000    -2.619000000    -3.436000000
H    -4.865000000    -1.576000000    -2.586000000
O    -5.053000000     0.412000000    -4.756000000
H    -4.561000000     0.454000000    -5.576000000
H    -4.453000000    -0.003000000    -4.137000000
O    -3.446000000     2.880000000    -7.361000000
H    -2.896000000     2.572000000    -6.640000000
H    -3.247000000     2.286000000    -8.084000000
O    -4.832000000    -5.568000000    -4.572000000
H    -4.055000000    -5.870000000    -4.102000000
H    -4.895000000    -6.150000000    -5.330000000
O    -2.739000000    -2.137000000    -5.616000000
H    -1.856000000    -2.435000000    -5.395000000
H    -2.880000000    -1.372000000    -5.060000000
O    -0.745000000     2.025000000    -5.540000000
H    -1.083000000     1.505000000    -4.811000000
H    -0.620000000     1.393000000    -6.247000000
O    -2.120000000     1.241000000    -9.075000000
H    -1.782000000     1.266000000    -9.971000000
H    -1.490000000     0.701000000    -8.597000000
O    -6.235000000     1.951000000    -7.217000000
H    -5.744000000     1.163000000    -6.985000000
H    -6.313000000     2.436000000    -6.395000000
O    -5.244000000    -3.044000000    -5.289000000
H    -5.157000000    -3.913000000    -4.896000000
H    -4.350000000    -2.801000000    -5.532000000
O    -5.465000000     4.779000000    -2.881000000
H    -5.196000000     5.607000000    -3.278000000
H    -4.995000000     4.749000000    -2.048000000
O    -8.328000000     2.623000000    -2.159000000
H    -7.773000000     1.927000000    -2.511000000
H    -8.741000000     2.233000000    -1.389000000
O    -7.129000000     0.210000000    -2.748000000
H    -6.444000000     0.334000000    -3.406000000
H    -6.965000000    -0.664000000    -2.395000000
