215
-1484.81982
C     3.983000000    -0.440000000    -3.849000000
H     3.818000000    -1.504000000    -4.001000000
C     4.380000000     0.001000000    -2.622000000
C     4.741000000     1.331000000    -2.407000000
H     5.037000000     1.744000000    -1.446000000
C     4.249000000    -0.931000000    -1.429000000
O     4.376000000    -2.350000000    -1.729000000
H     3.235000000    -0.672000000    -1.091000000
O     5.154000000    -0.701000000    -0.291000000
C     4.596000000    -0.767000000     0.921000000
C     4.254000000     0.395000000     1.588000000
H     4.438000000     1.354000000     1.110000000
C     3.562000000     0.471000000     2.770000000
O     3.148000000     1.727000000     3.295000000
C     3.366000000    -0.721000000     3.470000000
C     2.577000000    -0.581000000     4.815000000
H     2.889000000    -1.447000000     5.403000000
C     1.072000000    -0.638000000     4.694000000
C     0.300000000    -1.813000000     4.692000000
H     0.874000000    -2.728000000     4.818000000
H     2.970000000     0.305000000     5.318000000
C     3.635000000    -1.957000000     2.833000000
H     3.337000000    -2.884000000     3.316000000
C     4.309000000    -2.029000000     1.566000000
C     4.491000000    -3.349000000     0.943000000
H     4.538000000    -4.217000000     1.604000000
H     5.431000000    -3.338000000     0.387000000
C     3.368000000    -3.640000000    -0.013000000
C     2.319000000    -4.315000000     0.496000000
H     2.457000000    -4.851000000     1.431000000
C     3.319000000    -3.113000000    -1.297000000
C     2.171000000    -3.254000000    -2.105000000
H     2.209000000    -2.907000000    -3.134000000
C     1.109000000    -3.997000000    -1.566000000
O     0.013000000    -4.212000000    -2.275000000
C    -1.091000000    -3.356000000    -1.911000000
C    -1.717000000    -2.609000000    -3.079000000
C    -2.960000000    -1.893000000    -2.876000000
H    -3.396000000    -1.798000000    -1.884000000
C    -1.086000000    -2.585000000    -4.298000000
H    -0.085000000    -2.985000000    -4.441000000
O    -2.081000000    -4.148000000    -1.171000000
H    -0.767000000    -2.618000000    -1.162000000
C     1.212000000    -4.565000000    -0.316000000
C     0.067000000    -5.394000000     0.283000000
H     0.643000000    -6.044000000     0.945000000
H    -0.229000000    -5.952000000    -0.608000000
C    -1.097000000    -4.598000000     0.947000000
C    -1.170000000    -4.395000000     2.366000000
H    -0.328000000    -4.728000000     2.967000000
C    -2.054000000    -4.035000000     0.192000000
C    -3.052000000    -3.245000000     0.767000000
H    -3.892000000    -2.954000000     0.141000000
C    -3.059000000    -2.968000000     2.108000000
O    -3.917000000    -2.031000000     2.620000000
C    -3.476000000    -0.645000000     2.549000000
C    -4.539000000     0.365000000     2.191000000
C    -5.549000000    -0.014000000     1.267000000
H    -5.739000000    -1.052000000     1.004000000
C    -4.416000000     1.720000000     2.497000000
H    -3.594000000     2.116000000     3.087000000
O    -3.104000000    -0.433000000     3.982000000
H    -2.591000000    -0.544000000     1.904000000
C    -2.088000000    -3.521000000     2.956000000
C    -1.931000000    -3.084000000     4.443000000
H    -1.352000000    -3.796000000     5.034000000
H    -2.916000000    -2.915000000     4.884000000
C    -1.129000000    -1.829000000     4.444000000
C    -1.737000000    -0.597000000     4.264000000
C    -0.988000000     0.561000000     4.216000000
H    -1.557000000     1.451000000     3.957000000
C     0.381000000     0.548000000     4.416000000
O     1.055000000     1.798000000     4.330000000
C     1.728000000     2.018000000     3.059000000
H     1.394000000     1.379000000     2.228000000
C     1.600000000     3.528000000     2.645000000
C     2.556000000     4.187000000     1.926000000
H     3.557000000     3.763000000     1.929000000
C     0.365000000     4.127000000     2.764000000
H    -0.447000000     3.632000000     3.290000000
C     0.101000000     5.363000000     2.211000000
O    -1.065000000     6.054000000     2.247000000
C     1.083000000     6.076000000     1.532000000
H     0.841000000     7.001000000     1.015000000
C     2.328000000     5.484000000     1.352000000
O     3.249000000     6.203000000     0.616000000
C     4.138000000     5.409000000    -0.078000000
C     3.948000000     4.970000000    -1.363000000
H     3.032000000     5.200000000    -1.901000000
C     5.326000000     5.160000000     0.558000000
H     5.588000000     5.557000000     1.536000000
C     6.286000000     4.346000000     0.045000000
H     7.239000000     4.285000000     0.564000000
C     6.178000000     3.921000000    -1.265000000
H     7.017000000     3.403000000    -1.722000000
C     4.944000000     4.134000000    -1.928000000
O     4.691000000     3.541000000    -3.206000000
C     4.653000000     2.205000000    -3.436000000
C     4.260000000     1.782000000    -4.707000000
H     4.112000000     2.530000000    -5.482000000
C     3.934000000     0.468000000    -4.934000000
O     3.413000000     0.127000000    -6.155000000
C     2.605000000    -0.954000000    -6.366000000
C     1.250000000    -0.841000000    -6.365000000
H     0.936000000     0.198000000    -6.303000000
C     3.140000000    -2.231000000    -6.589000000
H     4.216000000    -2.373000000    -6.532000000
C     2.319000000    -3.317000000    -6.914000000
H     2.675000000    -4.331000000    -7.080000000
C     0.939000000    -3.169000000    -6.927000000
H     0.218000000    -3.979000000    -7.000000000
C     0.417000000    -1.924000000    -6.632000000
O    -0.901000000    -1.681000000    -6.499000000
C    -1.567000000    -1.763000000    -5.363000000
C    -2.802000000    -1.228000000    -5.191000000
H    -3.172000000    -0.597000000    -5.994000000
C    -3.481000000    -1.228000000    -3.985000000
O    -4.677000000    -0.750000000    -3.906000000
C    -5.630000000    -1.108000000    -3.028000000
C    -5.931000000    -0.105000000    -2.083000000
H    -5.349000000     0.814000000    -2.085000000
C    -6.332000000    -2.345000000    -3.061000000
H    -6.196000000    -2.994000000    -3.923000000
C    -7.336000000    -2.577000000    -2.092000000
H    -7.859000000    -3.529000000    -2.049000000
C    -7.648000000    -1.567000000    -1.202000000
H    -8.456000000    -1.772000000    -0.504000000
C    -6.933000000    -0.317000000    -1.212000000
O    -7.287000000     0.614000000    -0.246000000
C    -6.429000000     0.942000000     0.740000000
C    -6.330000000     2.262000000     1.179000000
H    -7.007000000     3.038000000     0.831000000
C    -5.359000000     2.700000000     2.075000000
O    -5.255000000     4.005000000     2.471000000
C    -4.239000000     4.601000000     3.150000000
C    -4.490000000     5.354000000     4.327000000
H    -5.503000000     5.360000000     4.723000000
C    -3.486000000     5.951000000     5.035000000
H    -3.700000000     6.336000000     6.029000000
C    -2.260000000     6.091000000     4.317000000
H    -1.450000000     6.680000000     4.741000000
C    -2.119000000     5.620000000     3.012000000
C    -3.018000000     4.724000000     2.497000000
H    -2.957000000     4.385000000     1.466000000
C    -0.681000000     0.807000000    -2.456000000
H    -0.847000000     0.715000000    -3.527000000
C     0.546000000     0.472000000    -1.827000000
H     1.360000000     0.134000000    -2.463000000
C     0.656000000     0.537000000    -0.420000000
H     1.582000000     0.242000000    -0.005000000
C    -0.458000000     0.878000000     0.321000000
H    -0.313000000     0.797000000     1.396000000
C    -1.628000000     1.386000000    -0.278000000
H    -2.478000000     1.564000000     0.377000000
C    -1.741000000     1.388000000    -1.698000000
C    -2.950000000     2.013000000    -2.320000000
O    -3.568000000     2.895000000    -1.763000000
O    -3.136000000     1.781000000    -3.492000000
O    -5.980000000     3.945000000    -1.858000000
H    -6.503000000     3.294000000    -2.327000000
H    -5.133000000     3.520000000    -1.725000000
O     0.212000000     4.114000000    -0.730000000
H     0.341000000     3.291000000    -0.259000000
H     0.500000000     3.926000000    -1.623000000
O    -4.540000000     4.832000000    -4.096000000
H    -4.205000000     3.945000000    -3.962000000
H    -5.209000000     4.940000000    -3.421000000
O    -2.114000000     6.196000000    -3.731000000
H    -1.690000000     5.884000000    -2.931000000
H    -2.830000000     5.578000000    -3.879000000
O    -7.529000000     6.742000000    -3.498000000
H    -6.650000000     6.805000000    -3.123000000
H    -8.080000000     7.250000000    -2.903000000
O    -4.927000000     1.900000000    -5.134000000
H    -5.707000000     1.685000000    -4.624000000
H    -4.205000000     1.826000000    -4.510000000
O    -2.233000000     5.121000000    -1.186000000
H    -1.410000000     4.695000000    -0.946000000
H    -2.854000000     4.400000000    -1.293000000
O    -1.818000000     1.977000000    -8.568000000
H    -2.644000000     2.399000000    -8.332000000
H    -1.402000000     2.589000000    -9.176000000
O     0.994000000     3.500000000    -3.425000000
H     1.377000000     4.161000000    -4.001000000
H     0.992000000     2.698000000    -3.949000000
O    -4.677000000     6.239000000    -6.497000000
H    -5.549000000     5.851000000    -6.569000000
H    -4.387000000     6.014000000    -5.613000000
O    -5.909000000    -0.328000000    -6.459000000
H    -5.357000000     0.183000000    -5.867000000
H    -6.734000000     0.156000000    -6.494000000
O    -0.659000000     5.182000000    -5.872000000
H    -0.691000000     4.258000000    -5.624000000
H    -1.112000000     5.637000000    -5.162000000
O    -6.356000000     6.005000000     0.097000000
H    -6.689000000     5.432000000     0.788000000
H    -6.201000000     5.421000000    -0.645000000
O    -1.160000000     2.347000000    -5.669000000
H    -1.454000000     1.823000000    -6.414000000
H    -1.781000000     2.140000000    -4.971000000
O    -7.592000000     2.497000000    -3.381000000
H    -8.475000000     2.379000000    -3.030000000
H    -7.718000000     2.567000000    -4.327000000
O     1.895000000     5.225000000    -5.248000000
H     2.216000000     6.123000000    -5.334000000
H     0.992000000     5.263000000    -5.563000000
O    -4.232000000     2.905000000    -7.698000000
H    -4.324000000     2.620000000    -6.789000000
H    -4.372000000     3.851000000    -7.667000000
O    -2.946000000     7.642000000    -0.599000000
H    -2.749000000     6.797000000    -1.003000000
H    -3.166000000     7.428000000     0.308000000
O    -4.901000000     7.454000000    -2.615000000
H    -4.155000000     7.595000000    -3.197000000
H    -4.578000000     7.695000000    -1.747000000
