215
-1434.10981
C    -3.186000000     2.786000000     1.292000000
H    -2.188000000     3.188000000     1.135000000
C    -3.418000000     1.937000000     2.357000000
C    -4.687000000     1.299000000     2.391000000
H    -4.897000000     0.475000000     3.069000000
C    -2.143000000     1.590000000     3.146000000
O    -1.454000000     2.723000000     3.699000000
H    -1.434000000     1.096000000     2.466000000
O    -2.530000000     0.660000000     4.168000000
C    -1.710000000    -0.449000000     4.314000000
C    -2.272000000    -1.594000000     3.891000000
H    -3.153000000    -1.601000000     3.254000000
C    -1.506000000    -2.772000000     3.932000000
O    -1.975000000    -3.806000000     3.096000000
C    -0.174000000    -2.727000000     4.468000000
C     0.861000000    -3.867000000     4.277000000
H     1.554000000    -3.926000000     5.120000000
C     1.591000000    -3.793000000     2.902000000
C     2.853000000    -3.164000000     2.924000000
H     3.291000000    -2.811000000     3.854000000
H     0.312000000    -4.811000000     4.257000000
C     0.361000000    -1.547000000     4.904000000
H     1.355000000    -1.504000000     5.341000000
C    -0.459000000    -0.354000000     4.889000000
C     0.118000000     0.925000000     5.532000000
H     0.816000000     0.619000000     6.314000000
H    -0.677000000     1.395000000     6.114000000
C     0.690000000     1.907000000     4.474000000
C     2.070000000     1.910000000     4.300000000
H     2.564000000     1.202000000     4.960000000
C    -0.070000000     2.741000000     3.672000000
C     0.483000000     3.498000000     2.709000000
H    -0.196000000     4.004000000     2.029000000
C     1.868000000     3.590000000     2.552000000
O     2.341000000     4.387000000     1.491000000
C     2.434000000     3.677000000     0.341000000
C     2.026000000     4.562000000    -0.897000000
C     2.275000000     4.077000000    -2.187000000
H     2.841000000     3.154000000    -2.282000000
C     1.142000000     5.678000000    -0.783000000
H     0.697000000     5.989000000     0.158000000
O     3.828000000     3.213000000     0.216000000
H     1.672000000     2.894000000     0.469000000
C     2.693000000     2.756000000     3.371000000
C     4.174000000     2.639000000     3.130000000
H     4.677000000     2.406000000     4.071000000
H     4.457000000     3.627000000     2.762000000
C     4.386000000     1.607000000     2.000000000
C     4.524000000     0.243000000     2.320000000
H     4.438000000    -0.077000000     3.355000000
C     4.279000000     1.960000000     0.637000000
C     4.421000000     1.039000000    -0.397000000
H     4.441000000     1.411000000    -1.418000000
C     4.560000000    -0.316000000     0.002000000
O     4.621000000    -1.182000000    -1.018000000
C     3.440000000    -1.969000000    -1.377000000
C     3.101000000    -2.021000000    -2.894000000
C     3.687000000    -1.116000000    -3.746000000
H     4.361000000    -0.327000000    -3.423000000
C     2.192000000    -2.938000000    -3.307000000
H     1.659000000    -3.447000000    -2.508000000
O     3.490000000    -3.201000000    -0.619000000
H     2.540000000    -1.512000000    -0.938000000
C     4.615000000    -0.734000000     1.345000000
C     4.845000000    -2.193000000     1.705000000
H     5.238000000    -2.277000000     2.720000000
H     5.502000000    -2.624000000     0.947000000
C     3.473000000    -2.921000000     1.740000000
C     2.823000000    -3.381000000     0.550000000
C     1.688000000    -4.146000000     0.561000000
H     1.331000000    -4.494000000    -0.405000000
C     0.981000000    -4.343000000     1.734000000
O    -0.245000000    -4.962000000     1.820000000
C    -1.327000000    -3.995000000     1.821000000
H    -0.938000000    -3.010000000     1.525000000
C    -2.375000000    -4.289000000     0.694000000
C    -3.600000000    -3.607000000     0.595000000
H    -4.007000000    -2.912000000     1.325000000
C    -1.944000000    -5.193000000    -0.273000000
H    -1.057000000    -5.818000000    -0.207000000
C    -2.756000000    -5.304000000    -1.364000000
O    -2.432000000    -6.092000000    -2.401000000
C    -3.840000000    -4.489000000    -1.617000000
H    -4.351000000    -4.456000000    -2.575000000
C    -4.376000000    -3.747000000    -0.586000000
O    -5.341000000    -2.834000000    -0.899000000
C    -6.186000000    -2.250000000     0.019000000
C    -6.262000000    -0.902000000     0.186000000
H    -5.569000000    -0.336000000    -0.431000000
C    -7.008000000    -3.026000000     0.728000000
H    -7.084000000    -4.102000000     0.593000000
C    -7.901000000    -2.551000000     1.663000000
H    -8.678000000    -3.128000000     2.159000000
C    -7.833000000    -1.165000000     1.965000000
H    -8.434000000    -0.714000000     2.751000000
C    -6.967000000    -0.336000000     1.221000000
O    -6.865000000     0.980000000     1.461000000
C    -5.659000000     1.689000000     1.455000000
C    -5.404000000     2.573000000     0.446000000
H    -6.157000000     2.636000000    -0.336000000
C    -4.145000000     3.114000000     0.372000000
O    -3.908000000     3.875000000    -0.672000000
C    -3.400000000     5.197000000    -0.482000000
C    -2.193000000     5.564000000    -1.143000000
H    -1.732000000     4.889000000    -1.860000000
C    -3.932000000     6.168000000     0.358000000
H    -4.811000000     5.916000000     0.945000000
C    -3.305000000     7.383000000     0.552000000
H    -3.675000000     8.054000000     1.323000000
C    -2.124000000     7.732000000    -0.166000000
H    -1.596000000     8.675000000    -0.049000000
C    -1.554000000     6.796000000    -1.055000000
O    -0.465000000     7.109000000    -1.846000000
C     0.526000000     6.179000000    -1.929000000
C     0.831000000     5.869000000    -3.224000000
H     0.368000000     6.264000000    -4.125000000
C     1.775000000     4.808000000    -3.311000000
O     2.049000000     4.338000000    -4.583000000
C     3.068000000     3.506000000    -5.004000000
C     2.777000000     2.140000000    -5.238000000
H     1.794000000     1.715000000    -5.048000000
C     4.259000000     4.011000000    -5.434000000
H     4.466000000     5.046000000    -5.175000000
C     5.224000000     3.218000000    -5.994000000
H     6.131000000     3.758000000    -6.253000000
C     5.059000000     1.823000000    -6.066000000
H     5.886000000     1.175000000    -6.342000000
C     3.842000000     1.262000000    -5.671000000
O     3.704000000    -0.130000000    -5.945000000
C     3.283000000    -1.063000000    -5.090000000
C     2.344000000    -1.987000000    -5.501000000
H     1.902000000    -1.924000000    -6.492000000
C     1.768000000    -2.919000000    -4.645000000
O     0.658000000    -3.608000000    -5.068000000
C     0.351000000    -4.791000000    -4.380000000
C     1.108000000    -5.946000000    -4.512000000
H     2.048000000    -5.864000000    -5.052000000
C     0.722000000    -7.119000000    -3.787000000
H     1.379000000    -7.984000000    -3.771000000
C    -0.448000000    -7.183000000    -3.047000000
H    -0.623000000    -8.016000000    -2.370000000
C    -1.195000000    -5.993000000    -2.998000000
C    -0.827000000    -4.806000000    -3.623000000
H    -1.384000000    -3.881000000    -3.495000000
C    -1.889000000    -0.601000000    -1.741000000
H    -2.924000000    -0.789000000    -2.014000000
C    -1.522000000    -0.661000000    -0.386000000
H    -2.295000000    -0.898000000     0.340000000
C    -0.302000000    -0.332000000     0.083000000
H    -0.064000000    -0.386000000     1.098000000
C     0.578000000     0.213000000    -0.852000000
H     1.548000000     0.576000000    -0.520000000
C     0.305000000     0.246000000    -2.221000000
H     1.034000000     0.569000000    -2.959000000
C    -0.956000000    -0.179000000    -2.684000000
C    -1.277000000    -0.183000000    -4.116000000
O    -0.405000000     0.027000000    -4.915000000
O    -2.379000000    -0.592000000    -4.501000000
O    -2.984000000     4.028000000    -4.253000000
H    -2.109000000     3.695000000    -4.451000000
H    -3.028000000     4.034000000    -3.296000000
O    -6.606000000    -2.252000000    -3.344000000
H    -6.379000000    -2.713000000    -2.537000000
H    -5.830000000    -1.730000000    -3.548000000
O    -1.488000000    -4.357000000    -6.718000000
H    -1.275000000    -3.807000000    -7.472000000
H    -0.738000000    -4.259000000    -6.131000000
O     0.156000000     1.610000000   -10.034000000
H    -0.662000000     1.116000000   -10.099000000
H     0.142000000     1.980000000    -9.152000000
O     0.834000000    -1.014000000    -9.324000000
H     0.146000000    -1.104000000    -8.664000000
H     0.662000000    -0.168000000    -9.736000000
O     0.629000000     3.242000000    -7.690000000
H     0.386000000     4.167000000    -7.642000000
H     1.554000000     3.250000000    -7.938000000
O    -3.360000000    -2.651000000    -5.573000000
H    -2.932000000    -1.888000000    -5.186000000
H    -2.638000000    -3.200000000    -5.880000000
O    -3.482000000     0.078000000    -6.874000000
H    -3.225000000     0.145000000    -5.955000000
H    -4.139000000    -0.619000000    -6.889000000
O    -1.568000000     6.152000000    -5.995000000
H    -2.104000000     5.924000000    -6.755000000
H    -1.655000000     5.402000000    -5.407000000
O    -4.680000000     2.302000000    -8.294000000
H    -4.498000000     2.952000000    -7.615000000
H    -4.253000000     1.504000000    -7.982000000
O    -0.404000000    -1.648000000    -6.944000000
H     0.073000000    -2.313000000    -6.448000000
H    -0.484000000    -0.910000000    -6.341000000
O    -0.739000000     2.820000000    -5.253000000
H    -0.564000000     1.881000000    -5.196000000
H    -0.079000000     3.150000000    -5.864000000
O    -2.019000000     0.204000000    -9.317000000
H    -2.283000000    -0.610000000    -9.746000000
H    -2.665000000     0.328000000    -8.621000000
O    -6.800000000    -0.759000000    -6.791000000
H    -6.368000000    -1.105000000    -6.010000000
H    -6.812000000     0.189000000    -6.657000000
O    -4.698000000    -3.808000000    -7.756000000
H    -4.227000000    -3.257000000    -7.131000000
H    -5.214000000    -4.401000000    -7.210000000
O    -4.879000000     3.949000000    -6.078000000
H    -5.538000000     4.582000000    -5.793000000
H    -4.145000000     4.082000000    -5.477000000
O    -7.260000000     2.106000000    -3.576000000
H    -7.151000000     2.125000000    -4.526000000
H    -7.826000000     1.351000000    -3.414000000
O     0.987000000    -4.093000000    -8.251000000
H     0.979000000    -3.378000000    -8.888000000
H     1.914000000    -4.232000000    -8.059000000
O    -4.985000000    -0.152000000    -3.818000000
H    -4.146000000    -0.591000000    -3.957000000
H    -4.749000000     0.740000000    -3.561000000
