215
-1446.02060
C    -3.987000000     3.301000000     1.153000000
H    -3.646000000     4.141000000     1.752000000
C    -3.662000000     1.965000000     1.515000000
C    -4.205000000     0.931000000     0.800000000
H    -3.935000000    -0.108000000     0.972000000
C    -2.618000000     1.643000000     2.584000000
O    -2.186000000     2.828000000     3.336000000
H    -1.819000000     1.125000000     2.034000000
O    -3.109000000     0.702000000     3.530000000
C    -2.234000000    -0.269000000     3.839000000
C    -2.478000000    -1.522000000     3.198000000
H    -3.334000000    -1.585000000     2.531000000
C    -1.721000000    -2.549000000     3.474000000
O    -2.004000000    -3.731000000     2.774000000
C    -0.587000000    -2.417000000     4.379000000
C     0.465000000    -3.435000000     4.465000000
H     1.010000000    -3.368000000     5.409000000
C     1.475000000    -3.396000000     3.329000000
C     2.703000000    -2.692000000     3.379000000
H     2.949000000    -2.204000000     4.319000000
H    -0.020000000    -4.412000000     4.412000000
C    -0.289000000    -1.152000000     4.902000000
H     0.582000000    -0.943000000     5.519000000
C    -1.217000000    -0.074000000     4.761000000
C    -0.943000000     1.287000000     5.414000000
H    -0.463000000     1.091000000     6.375000000
H    -1.939000000     1.696000000     5.592000000
C    -0.199000000     2.202000000     4.413000000
C     1.191000000     2.254000000     4.400000000
H     1.769000000     1.595000000     5.043000000
C    -0.854000000     2.985000000     3.443000000
C    -0.186000000     3.873000000     2.637000000
H    -0.773000000     4.463000000     1.938000000
C     1.191000000     3.879000000     2.636000000
O     1.819000000     4.692000000     1.677000000
C     2.181000000     3.865000000     0.462000000
C     1.826000000     4.523000000    -0.854000000
C     2.592000000     4.298000000    -2.036000000
H     3.476000000     3.680000000    -1.892000000
C     0.695000000     5.281000000    -0.975000000
H     0.152000000     5.590000000    -0.085000000
O     3.616000000     3.610000000     0.543000000
H     1.591000000     2.940000000     0.389000000
C     1.913000000     3.064000000     3.514000000
C     3.359000000     2.956000000     3.427000000
H     3.642000000     2.596000000     4.418000000
H     3.815000000     3.948000000     3.400000000
C     3.888000000     2.001000000     2.386000000
C     4.228000000     0.696000000     2.831000000
H     3.988000000     0.471000000     3.867000000
C     3.958000000     2.361000000     1.037000000
C     4.234000000     1.351000000     0.119000000
H     4.509000000     1.502000000    -0.922000000
C     4.582000000     0.062000000     0.565000000
O     4.866000000    -0.834000000    -0.448000000
C     3.853000000    -1.830000000    -0.770000000
C     3.548000000    -1.956000000    -2.268000000
C     4.280000000    -1.156000000    -3.163000000
H     5.169000000    -0.636000000    -2.814000000
C     2.408000000    -2.665000000    -2.711000000
H     1.890000000    -3.330000000    -2.024000000
O     3.991000000    -3.080000000    -0.104000000
H     2.939000000    -1.419000000    -0.314000000
C     4.522000000    -0.338000000     1.894000000
C     4.818000000    -1.778000000     2.281000000
H     5.252000000    -1.861000000     3.280000000
H     5.455000000    -2.254000000     1.533000000
C     3.555000000    -2.584000000     2.264000000
C     3.236000000    -3.235000000     1.085000000
C     2.111000000    -4.073000000     1.109000000
H     1.830000000    -4.645000000     0.228000000
C     1.189000000    -4.083000000     2.151000000
O     0.005000000    -4.754000000     1.921000000
C    -1.162000000    -3.934000000     1.608000000
H    -0.885000000    -2.973000000     1.149000000
C    -1.997000000    -4.680000000     0.562000000
C    -3.397000000    -4.488000000     0.543000000
H    -3.822000000    -3.895000000     1.349000000
C    -1.448000000    -5.458000000    -0.493000000
H    -0.397000000    -5.734000000    -0.460000000
C    -2.313000000    -6.012000000    -1.421000000
O    -1.881000000    -6.599000000    -2.571000000
C    -3.698000000    -5.725000000    -1.327000000
H    -4.346000000    -6.139000000    -2.095000000
C    -4.256000000    -4.979000000    -0.376000000
O    -5.591000000    -4.716000000    -0.328000000
C    -6.143000000    -3.491000000    -0.119000000
C    -5.655000000    -2.295000000    -0.667000000
H    -4.857000000    -2.361000000    -1.403000000
C    -7.330000000    -3.513000000     0.683000000
H    -7.713000000    -4.379000000     1.216000000
C    -7.884000000    -2.284000000     1.020000000
H    -8.778000000    -2.181000000     1.629000000
C    -7.307000000    -1.064000000     0.509000000
H    -7.693000000    -0.089000000     0.795000000
C    -6.226000000    -1.080000000    -0.364000000
O    -5.737000000     0.125000000    -0.918000000
C    -5.140000000     1.187000000    -0.184000000
C    -5.405000000     2.445000000    -0.651000000
H    -6.136000000     2.670000000    -1.423000000
C    -4.781000000     3.486000000    -0.002000000
O    -5.092000000     4.729000000    -0.530000000
C    -4.046000000     5.623000000    -0.467000000
C    -2.986000000     5.634000000    -1.426000000
H    -2.878000000     4.848000000    -2.169000000
C    -4.015000000     6.537000000     0.510000000
H    -4.763000000     6.535000000     1.299000000
C    -2.946000000     7.442000000     0.586000000
H    -2.835000000     8.139000000     1.412000000
C    -1.913000000     7.329000000    -0.347000000
H    -0.997000000     7.914000000    -0.352000000
C    -1.971000000     6.425000000    -1.371000000
O    -0.999000000     6.395000000    -2.308000000
C     0.228000000     5.762000000    -2.196000000
C     0.938000000     5.452000000    -3.361000000
H     0.453000000     5.781000000    -4.277000000
C     2.128000000     4.664000000    -3.293000000
O     2.706000000     4.170000000    -4.463000000
C     3.740000000     3.297000000    -4.487000000
C     3.596000000     1.968000000    -4.822000000
H     2.593000000     1.577000000    -4.972000000
C     5.059000000     3.785000000    -4.333000000
H     5.230000000     4.811000000    -4.016000000
C     6.149000000     2.896000000    -4.482000000
H     7.127000000     3.357000000    -4.365000000
C     5.962000000     1.552000000    -4.790000000
H     6.864000000     0.946000000    -4.819000000
C     4.678000000     1.073000000    -4.998000000
O     4.505000000    -0.264000000    -5.407000000
C     3.791000000    -0.975000000    -4.470000000
C     2.701000000    -1.742000000    -4.958000000
H     2.255000000    -1.640000000    -5.944000000
C     2.007000000    -2.561000000    -4.052000000
O     1.040000000    -3.349000000    -4.553000000
C     0.765000000    -4.654000000    -4.183000000
C     1.359000000    -5.639000000    -4.956000000
H     2.177000000    -5.384000000    -5.625000000
C     0.912000000    -6.949000000    -4.979000000
H     1.229000000    -7.633000000    -5.762000000
C    -0.258000000    -7.205000000    -4.244000000
H    -0.811000000    -8.137000000    -4.339000000
C    -0.728000000    -6.289000000    -3.293000000
C    -0.201000000    -5.019000000    -3.253000000
H    -0.668000000    -4.185000000    -2.735000000
C    -0.913000000    -1.265000000    -1.352000000
H    -1.552000000    -2.127000000    -1.178000000
C    -0.152000000    -0.693000000    -0.323000000
H    -0.355000000    -1.002000000     0.700000000
C     0.795000000     0.229000000    -0.550000000
H     1.457000000     0.531000000     0.267000000
C     1.055000000     0.710000000    -1.791000000
H     1.775000000     1.478000000    -2.063000000
C     0.334000000     0.139000000    -2.859000000
H     0.535000000     0.394000000    -3.897000000
C    -0.602000000    -0.848000000    -2.644000000
C    -1.399000000    -1.486000000    -3.760000000
O    -1.527000000    -0.925000000    -4.828000000
O    -2.117000000    -2.430000000    -3.558000000
O    -1.511000000     2.493000000    -1.966000000
H    -1.124000000     1.618000000    -1.984000000
H    -0.772000000     3.078000000    -1.800000000
O    -6.195000000    -3.250000000    -5.276000000
H    -5.619000000    -2.766000000    -4.683000000
H    -5.881000000    -3.026000000    -6.152000000
O    -1.623000000    -3.014000000    -8.625000000
H    -0.666000000    -3.033000000    -8.590000000
H    -1.865000000    -3.856000000    -9.010000000
O    -5.469000000     4.469000000    -3.734000000
H    -5.089000000     5.347000000    -3.729000000
H    -4.770000000     3.907000000    -4.067000000
O    -5.176000000    -3.788000000    -7.796000000
H    -4.265000000    -3.711000000    -7.513000000
H    -5.265000000    -4.700000000    -8.073000000
O    -4.044000000    -7.282000000    -6.521000000
H    -3.679000000    -8.046000000    -6.075000000
H    -4.088000000    -6.607000000    -5.844000000
O    -2.219000000     3.451000000    -6.322000000
H    -3.162000000     3.617000000    -6.312000000
H    -2.145000000     2.498000000    -6.367000000
O    -2.908000000    -2.870000000    -6.419000000
H    -2.575000000    -2.191000000    -5.832000000
H    -2.346000000    -2.815000000    -7.192000000
O    -4.547000000    -1.572000000    -3.850000000
H    -4.360000000    -0.821000000    -4.413000000
H    -3.686000000    -1.930000000    -3.634000000
O    -4.466000000     0.327000000    -8.258000000
H    -3.892000000     0.593000000    -7.541000000
H    -5.106000000    -0.256000000    -7.849000000
O    -3.738000000    -5.108000000    -4.693000000
H    -3.036000000    -5.088000000    -4.043000000
H    -3.679000000    -4.262000000    -5.136000000
O     1.429000000    -2.485000000    -8.263000000
H     1.215000000    -2.107000000    -9.116000000
H     0.899000000    -1.988000000    -7.641000000
O    -0.179000000    -0.524000000    -7.088000000
H    -0.499000000    -0.856000000    -6.250000000
H    -0.892000000    -0.698000000    -7.703000000
O    -3.068000000     0.833000000    -5.942000000
H    -2.351000000     0.257000000    -5.677000000
H    -3.313000000     1.295000000    -5.140000000
O     1.791000000     0.853000000    -9.186000000
H     2.168000000     1.732000000    -9.218000000
H     1.781000000     0.630000000    -8.255000000
O     2.417000000    -6.036000000    -2.158000000
H     3.291000000    -5.822000000    -2.484000000
H     1.869000000    -6.065000000    -2.942000000
O    -6.386000000    -6.004000000    -4.062000000
H    -5.692000000    -5.520000000    -4.510000000
H    -6.854000000    -5.340000000    -3.556000000
O    -8.126000000    -1.603000000    -2.873000000
H    -8.278000000    -0.709000000    -2.566000000
H    -7.177000000    -1.663000000    -2.974000000
O    -3.796000000     1.858000000    -3.574000000
H    -4.588000000     1.715000000    -3.056000000
H    -3.152000000     2.182000000    -2.944000000
