215
-1444.60045
C    -3.861000000     2.782000000     2.250000000
H    -3.187000000     3.629000000     2.151000000
C    -3.449000000     1.676000000     2.972000000
C    -4.327000000     0.630000000     3.148000000
H    -4.020000000    -0.306000000     3.608000000
C    -1.987000000     1.467000000     3.379000000
O    -1.323000000     2.722000000     3.677000000
H    -1.510000000     0.971000000     2.521000000
O    -1.913000000     0.567000000     4.512000000
C    -0.928000000    -0.369000000     4.453000000
C    -1.256000000    -1.588000000     3.866000000
H    -2.288000000    -1.781000000     3.587000000
C    -0.241000000    -2.491000000     3.645000000
O    -0.539000000    -3.612000000     2.968000000
C     1.094000000    -2.237000000     4.024000000
C     2.142000000    -3.263000000     3.742000000
H     3.009000000    -3.141000000     4.394000000
C     2.602000000    -3.186000000     2.273000000
C     3.750000000    -2.366000000     2.056000000
H     4.223000000    -1.870000000     2.900000000
H     1.748000000    -4.257000000     3.962000000
C     1.403000000    -0.992000000     4.446000000
H     2.423000000    -0.743000000     4.726000000
C     0.415000000    -0.053000000     4.696000000
C     0.747000000     1.293000000     5.290000000
H     1.591000000     1.234000000     5.980000000
H    -0.128000000     1.708000000     5.795000000
C     1.044000000     2.201000000     4.092000000
C     2.382000000     2.299000000     3.597000000
H     3.214000000     1.764000000     4.047000000
C     0.032000000     2.894000000     3.373000000
C     0.326000000     3.736000000     2.361000000
H    -0.470000000     4.289000000     1.869000000
C     1.649000000     3.961000000     1.982000000
O     1.911000000     4.718000000     0.807000000
C     1.977000000     3.916000000    -0.358000000
C     0.965000000     4.378000000    -1.480000000
C     1.268000000     4.232000000    -2.813000000
H     2.212000000     3.798000000    -3.131000000
C    -0.289000000     4.901000000    -1.212000000
H    -0.643000000     5.198000000    -0.229000000
O     3.296000000     3.641000000    -0.791000000
H     1.630000000     2.915000000    -0.062000000
C     2.618000000     3.159000000     2.538000000
C     4.076000000     3.198000000     2.036000000
H     4.716000000     2.976000000     2.893000000
H     4.289000000     4.224000000     1.727000000
C     4.355000000     2.262000000     0.884000000
C     4.729000000     0.951000000     1.176000000
H     4.930000000     0.767000000     2.229000000
C     3.893000000     2.481000000    -0.451000000
C     4.084000000     1.571000000    -1.469000000
H     3.820000000     1.696000000    -2.516000000
C     4.613000000     0.367000000    -1.146000000
O     4.553000000    -0.580000000    -2.149000000
C     3.530000000    -1.546000000    -2.184000000
C     3.022000000    -1.715000000    -3.610000000
C     3.263000000    -0.769000000    -4.555000000
H     3.816000000     0.144000000    -4.350000000
C     2.173000000    -2.836000000    -3.869000000
H     1.982000000    -3.434000000    -2.982000000
O     3.977000000    -2.732000000    -1.578000000
H     2.681000000    -1.160000000    -1.601000000
C     4.965000000     0.016000000     0.166000000
C     5.478000000    -1.356000000     0.545000000
H     6.142000000    -1.197000000     1.397000000
H     6.105000000    -1.848000000    -0.202000000
C     4.364000000    -2.323000000     0.798000000
C     3.631000000    -2.949000000    -0.238000000
C     2.520000000    -3.801000000    -0.076000000
H     2.042000000    -4.303000000    -0.913000000
C     2.026000000    -3.909000000     1.215000000
O     0.877000000    -4.592000000     1.345000000
C    -0.296000000    -3.773000000     1.539000000
H    -0.135000000    -2.794000000     1.064000000
C    -1.494000000    -4.371000000     0.895000000
C    -2.756000000    -4.174000000     1.473000000
H    -2.771000000    -3.895000000     2.524000000
C    -1.419000000    -4.950000000    -0.424000000
H    -0.428000000    -5.029000000    -0.865000000
C    -2.605000000    -5.378000000    -1.085000000
O    -2.579000000    -5.830000000    -2.373000000
C    -3.817000000    -5.128000000    -0.472000000
H    -4.643000000    -5.254000000    -1.167000000
C    -3.933000000    -4.495000000     0.775000000
O    -5.163000000    -4.509000000     1.373000000
C    -5.594000000    -3.671000000     2.418000000
C    -5.695000000    -2.311000000     2.129000000
H    -5.448000000    -1.938000000     1.139000000
C    -5.980000000    -4.218000000     3.625000000
H    -5.905000000    -5.282000000     3.831000000
C    -6.492000000    -3.398000000     4.595000000
H    -6.726000000    -3.923000000     5.517000000
C    -6.639000000    -2.043000000     4.285000000
H    -6.991000000    -1.411000000     5.097000000
C    -6.288000000    -1.570000000     3.092000000
O    -6.601000000    -0.209000000     2.969000000
C    -5.642000000     0.755000000     2.744000000
C    -6.046000000     1.923000000     2.034000000
H    -7.041000000     2.124000000     1.644000000
C    -5.187000000     2.963000000     1.877000000
O    -5.524000000     4.097000000     1.149000000
C    -4.682000000     5.158000000     0.801000000
C    -3.948000000     4.976000000    -0.390000000
H    -4.171000000     4.108000000    -1.005000000
C    -4.560000000     6.256000000     1.600000000
H    -5.161000000     6.308000000     2.504000000
C    -3.549000000     7.197000000     1.296000000
H    -3.298000000     8.014000000     1.968000000
C    -2.857000000     7.067000000     0.117000000
H    -2.038000000     7.707000000    -0.199000000
C    -3.031000000     5.940000000    -0.704000000
O    -2.374000000     5.838000000    -1.930000000
C    -1.156000000     5.261000000    -2.258000000
C    -0.809000000     5.033000000    -3.613000000
H    -1.511000000     5.246000000    -4.415000000
C     0.440000000     4.478000000    -3.870000000
O     0.856000000     4.272000000    -5.152000000
C     2.040000000     3.556000000    -5.596000000
C     1.909000000     2.175000000    -5.842000000
H     1.021000000     1.620000000    -5.549000000
C     3.278000000     4.156000000    -5.713000000
H     3.332000000     5.202000000    -5.424000000
C     4.311000000     3.417000000    -6.182000000
H     5.313000000     3.821000000    -6.306000000
C     4.197000000     2.089000000    -6.502000000
H     5.037000000     1.519000000    -6.891000000
C     2.974000000     1.435000000    -6.373000000
O     2.741000000     0.110000000    -6.704000000
C     2.675000000    -0.876000000    -5.800000000
C     1.779000000    -1.901000000    -6.100000000
H     1.195000000    -1.941000000    -7.016000000
C     1.508000000    -2.860000000    -5.099000000
O     0.593000000    -3.786000000    -5.449000000
C     0.196000000    -4.897000000    -4.632000000
C     1.063000000    -5.882000000    -4.409000000
H     1.999000000    -5.822000000    -4.959000000
C     0.671000000    -6.958000000    -3.655000000
H     1.337000000    -7.809000000    -3.532000000
C    -0.518000000    -6.931000000    -2.971000000
H    -0.867000000    -7.774000000    -2.380000000
C    -1.439000000    -5.930000000    -3.103000000
C    -1.009000000    -4.937000000    -4.017000000
H    -1.637000000    -4.055000000    -4.122000000
C    -2.013000000    -1.393000000    -1.045000000
H    -2.853000000    -1.993000000    -0.706000000
C    -1.180000000    -0.781000000    -0.118000000
H    -1.306000000    -0.886000000     0.956000000
C    -0.044000000    -0.043000000    -0.538000000
H     0.642000000     0.348000000     0.177000000
C     0.175000000     0.080000000    -1.874000000
H     1.021000000     0.685000000    -2.192000000
C    -0.727000000    -0.400000000    -2.824000000
H    -0.574000000    -0.171000000    -3.875000000
C    -1.823000000    -1.133000000    -2.425000000
C    -2.872000000    -1.539000000    -3.380000000
O    -2.525000000    -1.435000000    -4.554000000
O    -4.038000000    -1.801000000    -3.035000000
O    -3.033000000     1.581000000    -0.315000000
H    -2.601000000     2.032000000    -1.040000000
H    -2.561000000     0.753000000    -0.233000000
O    -3.268000000     2.926000000    -4.223000000
H    -3.420000000     3.608000000    -4.878000000
H    -3.818000000     3.179000000    -3.482000000
O    -2.719000000    -4.621000000    -6.550000000
H    -3.346000000    -4.617000000    -5.826000000
H    -2.379000000    -5.515000000    -6.568000000
O    -6.227000000    -3.600000000    -2.853000000
H    -5.529000000    -2.982000000    -2.638000000
H    -7.028000000    -3.077000000    -2.821000000
O    -0.719000000    -3.631000000    -8.395000000
H     0.124000000    -4.057000000    -8.240000000
H    -1.253000000    -3.874000000    -7.638000000
O    -6.417000000    -0.993000000    -1.528000000
H    -5.496000000    -1.228000000    -1.647000000
H    -6.643000000    -0.507000000    -2.321000000
O    -4.963000000     0.763000000    -4.362000000
H    -4.247000000     1.368000000    -4.168000000
H    -4.771000000    -0.012000000    -3.835000000
O    -6.488000000    -1.639000000    -6.795000000
H    -5.746000000    -1.482000000    -6.211000000
H    -6.170000000    -1.385000000    -7.661000000
O    -4.281000000    -4.379000000    -4.609000000
H    -3.838000000    -3.530000000    -4.620000000
H    -4.854000000    -4.340000000    -3.843000000
O    -2.234000000     0.835000000    -6.130000000
H    -2.183000000    -0.018000000    -5.697000000
H    -2.710000000     1.389000000    -5.511000000
O    -6.239000000    -4.506000000    -6.564000000
H    -6.626000000    -3.635000000    -6.478000000
H    -5.573000000    -4.541000000    -5.876000000
O     0.124000000     0.216000000    -8.005000000
H    -0.471000000     0.589000000    -7.353000000
H    -0.442000000    -0.309000000    -8.571000000
O    -7.280000000    -0.994000000    -4.306000000
H    -7.386000000    -1.244000000    -5.223000000
H    -7.227000000    -0.038000000    -4.323000000
O    -6.764000000     1.501000000    -6.691000000
H    -5.875000000     1.396000000    -6.351000000
H    -7.007000000     2.396000000    -6.453000000
O    -5.009000000    -7.130000000    -4.346000000
H    -4.731000000    -6.282000000    -4.692000000
H    -4.917000000    -7.732000000    -5.084000000
O    -2.200000000    -1.624000000    -9.278000000
H    -2.893000000    -1.681000000    -8.621000000
H    -1.599000000    -2.335000000    -9.056000000
O    -7.567000000     1.764000000    -3.107000000
H    -6.876000000     1.741000000    -2.445000000
H    -7.230000000     2.350000000    -3.784000000
O    -3.601000000    -2.158000000    -6.849000000
H    -3.189000000    -3.016000000    -6.751000000
H    -3.572000000    -1.776000000    -5.972000000
O    -5.958000000     1.976000000    -0.883000000
H    -5.750000000     2.523000000    -0.125000000
H    -5.191000000     1.413000000    -0.990000000
