215
-1448.99606
C    -3.540000000     3.590000000     1.693000000
H    -2.698000000     4.272000000     1.610000000
C    -3.376000000     2.298000000     2.168000000
C    -4.429000000     1.369000000     2.135000000
H    -4.213000000     0.396000000     2.569000000
C    -2.060000000     1.823000000     2.778000000
O    -1.401000000     3.064000000     3.114000000
H    -1.541000000     1.365000000     1.923000000
O    -2.251000000     0.988000000     3.954000000
C    -1.359000000     0.031000000     4.246000000
C    -1.869000000    -1.217000000     4.101000000
H    -2.833000000    -1.310000000     3.607000000
C    -0.904000000    -2.261000000     4.062000000
O    -1.367000000    -3.430000000     3.573000000
C     0.440000000    -2.100000000     4.443000000
C     1.404000000    -3.251000000     4.491000000
H     2.213000000    -3.118000000     5.213000000
C     2.083000000    -3.354000000     3.155000000
C     3.207000000    -2.598000000     2.930000000
H     3.604000000    -1.946000000     3.704000000
H     0.867000000    -4.166000000     4.749000000
C     0.865000000    -0.828000000     4.704000000
H     1.924000000    -0.667000000     4.890000000
C    -0.004000000     0.275000000     4.640000000
C     0.402000000     1.684000000     5.044000000
H     1.096000000     1.567000000     5.880000000
H    -0.461000000     2.153000000     5.522000000
C     0.852000000     2.619000000     3.938000000
C     2.228000000     2.695000000     3.656000000
H     2.935000000     2.248000000     4.351000000
C    -0.048000000     3.212000000     3.032000000
C     0.453000000     3.755000000     1.858000000
H    -0.326000000     4.075000000     1.171000000
C     1.776000000     3.948000000     1.578000000
O     2.125000000     4.429000000     0.290000000
C     2.214000000     3.459000000    -0.742000000
C     1.576000000     4.055000000    -2.003000000
C     1.756000000     3.437000000    -3.229000000
H     2.636000000     2.817000000    -3.379000000
C     0.421000000     4.871000000    -1.893000000
H     0.102000000     5.136000000    -0.888000000
O     3.605000000     3.122000000    -0.949000000
H     1.761000000     2.506000000    -0.432000000
C     2.686000000     3.339000000     2.494000000
C     4.193000000     3.169000000     2.060000000
H     4.840000000     2.933000000     2.908000000
H     4.502000000     4.154000000     1.703000000
C     4.310000000     2.042000000     1.081000000
C     4.700000000     0.799000000     1.577000000
H     4.888000000     0.713000000     2.644000000
C     4.116000000     2.119000000    -0.302000000
C     4.282000000     0.994000000    -1.078000000
H     4.145000000     0.944000000    -2.155000000
C     4.647000000    -0.224000000    -0.512000000
O     4.766000000    -1.370000000    -1.280000000
C     3.609000000    -2.171000000    -1.285000000
C     3.101000000    -2.355000000    -2.751000000
C     3.805000000    -1.648000000    -3.775000000
H     4.736000000    -1.126000000    -3.570000000
C     2.022000000    -3.188000000    -3.005000000
H     1.575000000    -3.737000000    -2.180000000
O     3.842000000    -3.417000000    -0.676000000
H     2.874000000    -1.628000000    -0.673000000
C     4.882000000    -0.312000000     0.866000000
C     5.133000000    -1.653000000     1.563000000
H     5.533000000    -1.472000000     2.563000000
H     5.899000000    -2.269000000     1.089000000
C     3.834000000    -2.515000000     1.624000000
C     3.287000000    -3.367000000     0.633000000
C     2.084000000    -4.055000000     0.869000000
H     1.583000000    -4.614000000     0.083000000
C     1.436000000    -3.971000000     2.088000000
O     0.184000000    -4.493000000     2.213000000
C    -0.927000000    -3.650000000     2.185000000
H    -0.669000000    -2.729000000     1.643000000
C    -2.016000000    -4.193000000     1.279000000
C    -3.267000000    -3.684000000     1.487000000
H    -3.369000000    -3.066000000     2.374000000
C    -1.802000000    -4.898000000     0.105000000
H    -0.788000000    -5.182000000    -0.161000000
C    -2.892000000    -5.259000000    -0.755000000
O    -2.782000000    -5.997000000    -1.937000000
C    -4.147000000    -4.958000000    -0.404000000
H    -4.922000000    -5.355000000    -1.055000000
C    -4.406000000    -4.098000000     0.689000000
O    -5.672000000    -3.619000000     0.878000000
C    -5.971000000    -2.591000000     1.736000000
C    -5.962000000    -1.260000000     1.322000000
H    -5.575000000    -0.953000000     0.354000000
C    -6.609000000    -3.002000000     2.952000000
H    -6.450000000    -4.033000000     3.256000000
C    -7.035000000    -1.977000000     3.843000000
H    -7.343000000    -2.180000000     4.865000000
C    -7.088000000    -0.704000000     3.414000000
H    -7.586000000     0.039000000     4.032000000
C    -6.702000000    -0.356000000     2.125000000
O    -6.841000000     0.987000000     1.821000000
C    -5.691000000     1.771000000     1.705000000
C    -5.822000000     3.050000000     1.155000000
H    -6.715000000     3.251000000     0.568000000
C    -4.735000000     3.896000000     1.095000000
O    -4.859000000     5.101000000     0.485000000
C    -3.801000000     5.818000000    -0.054000000
C    -3.070000000     5.366000000    -1.168000000
H    -3.370000000     4.422000000    -1.616000000
C    -3.465000000     7.072000000     0.538000000
H    -3.939000000     7.489000000     1.422000000
C    -2.516000000     7.907000000    -0.102000000
H    -2.266000000     8.874000000     0.327000000
C    -1.932000000     7.562000000    -1.318000000
H    -1.278000000     8.237000000    -1.864000000
C    -2.144000000     6.223000000    -1.754000000
O    -1.586000000     5.815000000    -2.901000000
C    -0.451000000     5.039000000    -2.989000000
C    -0.288000000     4.288000000    -4.177000000
H    -1.046000000     4.344000000    -4.954000000
C     0.885000000     3.544000000    -4.304000000
O     1.000000000     2.665000000    -5.312000000
C     2.174000000     2.180000000    -5.879000000
C     2.339000000     0.788000000    -5.853000000
H     1.617000000     0.188000000    -5.307000000
C     3.163000000     3.074000000    -6.276000000
H     3.134000000     4.159000000    -6.321000000
C     4.357000000     2.485000000    -6.672000000
H     5.139000000     3.189000000    -6.943000000
C     4.538000000     1.155000000    -6.706000000
H     5.452000000     0.683000000    -7.058000000
C     3.582000000     0.282000000    -6.197000000
O     3.880000000    -1.022000000    -6.082000000
C     3.392000000    -1.800000000    -5.024000000
C     2.297000000    -2.660000000    -5.342000000
H     1.963000000    -2.755000000    -6.372000000
C     1.682000000    -3.415000000    -4.340000000
O     0.718000000    -4.349000000    -4.605000000
C     0.195000000    -5.287000000    -3.766000000
C     1.099000000    -6.294000000    -3.253000000
H     2.103000000    -6.270000000    -3.668000000
C     0.668000000    -7.189000000    -2.337000000
H     1.430000000    -7.867000000    -1.963000000
C    -0.715000000    -7.162000000    -1.956000000
H    -1.102000000    -7.875000000    -1.232000000
C    -1.559000000    -6.193000000    -2.557000000
C    -1.118000000    -5.211000000    -3.434000000
H    -1.844000000    -4.500000000    -3.820000000
C    -1.498000000    -1.162000000    -1.315000000
H    -2.332000000    -1.806000000    -1.047000000
C    -0.672000000    -0.559000000    -0.359000000
H    -0.869000000    -0.616000000     0.709000000
C     0.459000000     0.068000000    -0.732000000
H     1.173000000     0.472000000     0.111000000
C     0.812000000     0.298000000    -2.059000000
H     1.707000000     0.839000000    -2.354000000
C    -0.171000000    -0.122000000    -3.016000000
H     0.056000000     0.073000000    -4.061000000
C    -1.302000000    -0.873000000    -2.669000000
C    -2.256000000    -1.462000000    -3.710000000
O    -1.815000000    -1.426000000    -4.885000000
O    -3.101000000    -2.288000000    -3.443000000
O    -2.907000000     1.878000000    -3.026000000
H    -3.066000000     2.389000000    -3.819000000
H    -1.998000000     1.589000000    -3.106000000
O    -5.495000000     1.158000000    -2.354000000
H    -4.567000000     1.387000000    -2.406000000
H    -5.515000000     0.209000000    -2.483000000
O    -7.128000000    -3.765000000    -1.730000000
H    -7.089000000    -4.546000000    -1.178000000
H    -7.506000000    -3.091000000    -1.166000000
O    -4.297000000    -3.360000000    -7.805000000
H    -4.032000000    -3.570000000    -8.701000000
H    -3.486000000    -3.403000000    -7.299000000
O    -0.673000000    -3.145000000    -8.959000000
H    -1.041000000    -3.569000000    -9.734000000
H     0.113000000    -3.653000000    -8.757000000
O    -4.527000000    -4.120000000    -4.613000000
H    -3.925000000    -3.505000000    -4.194000000
H    -3.983000000    -4.601000000    -5.236000000
O    -0.323000000    -0.251000000    -9.373000000
H    -0.266000000    -1.177000000    -9.138000000
H    -0.550000000     0.191000000    -8.555000000
O    -2.373000000     2.934000000    -7.659000000
H    -2.347000000     2.055000000    -7.282000000
H    -2.820000000     3.464000000    -6.999000000
O    -5.528000000    -1.604000000    -2.564000000
H    -5.945000000    -2.417000000    -2.279000000
H    -4.684000000    -1.880000000    -2.922000000
O    -6.948000000    -0.891000000    -5.141000000
H    -6.443000000    -0.804000000    -4.333000000
H    -7.087000000    -1.833000000    -5.236000000
O    -5.213000000     1.526000000    -5.970000000
H    -4.699000000     1.059000000    -6.629000000
H    -5.756000000     0.848000000    -5.567000000
O    -2.803000000    -6.141000000    -6.168000000
H    -2.333000000    -5.310000000    -6.235000000
H    -2.124000000    -6.786000000    -5.970000000
O    -1.866000000    -3.515000000    -6.525000000
H    -1.415000000    -3.098000000    -7.259000000
H    -1.676000000    -2.951000000    -5.776000000
O    -1.671000000     0.108000000    -6.940000000
H    -1.726000000    -0.369000000    -6.112000000
H    -2.548000000     0.032000000    -7.318000000
O    -3.434000000     3.634000000    -5.305000000
H    -3.833000000     4.478000000    -5.093000000
H    -4.177000000     3.054000000    -5.472000000
O    -7.057000000    -3.683000000    -4.436000000
H    -7.213000000    -3.692000000    -3.492000000
H    -6.125000000    -3.882000000    -4.526000000
O    -5.359000000    -6.924000000    -4.477000000
H    -4.981000000    -6.047000000    -4.412000000
H    -4.616000000    -7.489000000    -4.688000000
O    -4.316000000    -0.462000000    -7.948000000
H    -4.135000000    -1.377000000    -7.734000000
H    -4.075000000    -0.379000000    -8.871000000
O    -7.892000000     0.448000000    -2.573000000
H    -8.349000000     0.936000000    -3.258000000
H    -7.021000000     0.843000000    -2.539000000
