215
-1436.27004
C    -3.262000000     3.233000000     1.353000000
H    -2.337000000     3.787000000     1.207000000
C    -3.261000000     2.385000000     2.435000000
C    -4.484000000     1.713000000     2.791000000
H    -4.385000000     0.891000000     3.495000000
C    -1.986000000     2.084000000     3.266000000
O    -1.272000000     3.295000000     3.662000000
H    -1.318000000     1.610000000     2.532000000
O    -2.195000000     1.239000000     4.356000000
C    -1.375000000     0.161000000     4.486000000
C    -1.820000000    -1.047000000     3.845000000
H    -2.812000000    -1.141000000     3.409000000
C    -0.988000000    -2.118000000     3.898000000
O    -1.537000000    -3.151000000     3.188000000
C     0.304000000    -2.056000000     4.430000000
C     1.121000000    -3.249000000     4.435000000
H     1.862000000    -3.186000000     5.235000000
C     1.844000000    -3.362000000     3.080000000
C     3.138000000    -2.808000000     2.913000000
H     3.652000000    -2.226000000     3.674000000
H     0.447000000    -4.102000000     4.542000000
C     0.688000000    -0.908000000     5.040000000
H     1.710000000    -0.993000000     5.401000000
C    -0.079000000     0.233000000     5.041000000
C     0.479000000     1.620000000     5.529000000
H     1.215000000     1.526000000     6.330000000
H    -0.354000000     2.114000000     6.032000000
C     0.971000000     2.484000000     4.367000000
C     2.292000000     2.437000000     4.018000000
H     2.991000000     1.844000000     4.602000000
C     0.103000000     3.322000000     3.611000000
C     0.614000000     3.963000000     2.436000000
H    -0.096000000     4.453000000     1.774000000
C     1.962000000     3.862000000     2.059000000
O     2.338000000     4.417000000     0.896000000
C     2.407000000     3.504000000    -0.282000000
C     1.791000000     4.071000000    -1.564000000
C     1.875000000     3.315000000    -2.749000000
H     2.531000000     2.449000000    -2.713000000
C     0.832000000     5.084000000    -1.487000000
H     0.635000000     5.512000000    -0.507000000
O     3.794000000     3.112000000    -0.526000000
H     1.883000000     2.555000000    -0.097000000
C     2.816000000     3.064000000     2.840000000
C     4.209000000     2.771000000     2.375000000
H     4.883000000     2.404000000     3.152000000
H     4.709000000     3.680000000     2.033000000
C     4.318000000     1.671000000     1.332000000
C     4.583000000     0.342000000     1.722000000
H     4.848000000     0.061000000     2.738000000
C     4.233000000     1.894000000    -0.052000000
C     4.410000000     0.910000000    -1.006000000
H     4.150000000     1.173000000    -2.029000000
C     4.649000000    -0.393000000    -0.597000000
O     4.478000000    -1.342000000    -1.518000000
C     3.285000000    -2.065000000    -1.568000000
C     2.807000000    -2.366000000    -3.037000000
C     3.338000000    -1.531000000    -3.990000000
H     4.000000000    -0.687000000    -3.813000000
C     1.990000000    -3.395000000    -3.367000000
H     1.549000000    -4.029000000    -2.602000000
O     3.451000000    -3.234000000    -0.769000000
H     2.478000000    -1.449000000    -1.146000000
C     4.799000000    -0.653000000     0.794000000
C     5.038000000    -2.044000000     1.306000000
H     5.667000000    -1.977000000     2.196000000
H     5.533000000    -2.698000000     0.585000000
C     3.681000000    -2.745000000     1.584000000
C     3.028000000    -3.344000000     0.537000000
C     1.806000000    -4.047000000     0.776000000
H     1.308000000    -4.503000000    -0.076000000
C     1.217000000    -4.001000000     1.970000000
O    -0.083000000    -4.382000000     2.074000000
C    -1.152000000    -3.450000000     1.899000000
H    -0.765000000    -2.540000000     1.417000000
C    -2.201000000    -3.805000000     0.851000000
C    -3.445000000    -3.148000000     0.859000000
H    -3.650000000    -2.280000000     1.481000000
C    -1.944000000    -4.691000000    -0.182000000
H    -0.981000000    -5.183000000    -0.291000000
C    -2.920000000    -5.108000000    -1.060000000
O    -2.707000000    -5.910000000    -2.114000000
C    -4.175000000    -4.481000000    -1.003000000
H    -4.929000000    -4.724000000    -1.748000000
C    -4.466000000    -3.568000000     0.015000000
O    -5.707000000    -2.909000000     0.034000000
C    -6.234000000    -2.230000000     1.072000000
C    -6.152000000    -0.874000000     1.223000000
H    -5.727000000    -0.276000000     0.420000000
C    -6.731000000    -2.975000000     2.193000000
H    -6.661000000    -4.052000000     2.327000000
C    -7.421000000    -2.322000000     3.233000000
H    -7.898000000    -2.975000000     3.960000000
C    -7.477000000    -0.930000000     3.210000000
H    -8.069000000    -0.471000000     3.998000000
C    -6.781000000    -0.197000000     2.262000000
O    -6.839000000     1.169000000     2.194000000
C    -5.630000000     1.913000000     2.001000000
C    -5.538000000     2.732000000     0.888000000
H    -6.456000000     2.842000000     0.315000000
C    -4.392000000     3.430000000     0.598000000
O    -4.503000000     4.396000000    -0.387000000
C    -3.656000000     5.442000000    -0.503000000
C    -2.764000000     5.429000000    -1.517000000
H    -2.616000000     4.594000000    -2.196000000
C    -3.741000000     6.463000000     0.458000000
H    -4.552000000     6.400000000     1.178000000
C    -2.842000000     7.541000000     0.420000000
H    -2.761000000     8.239000000     1.249000000
C    -1.906000000     7.483000000    -0.617000000
H    -1.105000000     8.214000000    -0.547000000
C    -1.827000000     6.475000000    -1.518000000
O    -0.861000000     6.501000000    -2.423000000
C     0.018000000     5.443000000    -2.575000000
C     0.211000000     4.774000000    -3.743000000
H    -0.400000000     5.028000000    -4.605000000
C     1.164000000     3.776000000    -3.867000000
O     1.342000000     3.173000000    -5.071000000
C     2.474000000     2.591000000    -5.575000000
C     2.464000000     1.210000000    -5.686000000
H     1.631000000     0.594000000    -5.357000000
C     3.631000000     3.309000000    -5.843000000
H     3.738000000     4.380000000    -5.688000000
C     4.707000000     2.643000000    -6.259000000
H     5.630000000     3.197000000    -6.411000000
C     4.750000000     1.230000000    -6.408000000
H     5.640000000     0.700000000    -6.739000000
C     3.611000000     0.503000000    -6.130000000
O     3.596000000    -0.823000000    -6.300000000
C     2.982000000    -1.646000000    -5.336000000
C     2.083000000    -2.649000000    -5.686000000
H     1.786000000    -2.810000000    -6.719000000
C     1.631000000    -3.509000000    -4.706000000
O     0.761000000    -4.567000000    -5.104000000
C     0.274000000    -5.477000000    -4.209000000
C     1.064000000    -6.648000000    -3.880000000
H     2.058000000    -6.795000000    -4.295000000
C     0.600000000    -7.505000000    -2.865000000
H     1.226000000    -8.337000000    -2.551000000
C    -0.700000000    -7.243000000    -2.277000000
H    -0.943000000    -8.060000000    -1.601000000
C    -1.498000000    -6.125000000    -2.702000000
C    -0.982000000    -5.210000000    -3.644000000
H    -1.515000000    -4.265000000    -3.716000000
C    -2.110000000    -0.160000000    -0.907000000
H    -3.187000000    -0.307000000    -0.915000000
C    -1.431000000    -0.024000000     0.278000000
H    -1.967000000    -0.082000000     1.222000000
C     0.002000000     0.284000000     0.251000000
H     0.559000000     0.334000000     1.150000000
C     0.615000000     0.358000000    -0.994000000
H     1.692000000     0.490000000    -0.921000000
C    -0.041000000     0.146000000    -2.216000000
H     0.447000000     0.247000000    -3.182000000
C    -1.393000000    -0.282000000    -2.140000000
C    -2.076000000    -0.632000000    -3.425000000
O    -1.376000000    -0.985000000    -4.343000000
O    -3.250000000    -0.523000000    -3.539000000
O    -2.224000000     3.398000000    -5.719000000
H    -2.981000000     3.368000000    -5.134000000
H    -1.920000000     2.491000000    -5.764000000
O    -7.371000000     2.645000000    -3.269000000
H    -8.126000000     2.887000000    -3.805000000
H    -7.703000000     1.969000000    -2.678000000
O    -0.928000000    -5.524000000    -7.129000000
H    -0.898000000    -4.931000000    -7.880000000
H    -0.808000000    -4.955000000    -6.369000000
O    -3.436000000    -3.092000000    -5.192000000
H    -3.477000000    -2.413000000    -4.520000000
H    -2.626000000    -2.908000000    -5.669000000
O    -5.490000000    -3.573000000    -7.110000000
H    -4.853000000    -3.099000000    -6.575000000
H    -6.231000000    -3.723000000    -6.523000000
O     0.070000000    -0.386000000    -8.172000000
H     0.696000000    -0.935000000    -8.645000000
H     0.056000000     0.437000000    -8.662000000
O    -0.587000000     4.102000000    -7.881000000
H    -1.262000000     3.833000000    -7.258000000
H    -0.062000000     4.744000000    -7.404000000
O    -5.792000000    -1.093000000    -2.369000000
H    -5.054000000    -0.728000000    -2.858000000
H    -5.435000000    -1.871000000    -1.941000000
O    -4.535000000    -0.255000000    -5.773000000
H    -4.201000000     0.555000000    -6.159000000
H    -4.073000000    -0.330000000    -4.938000000
O    -6.811000000    -5.329000000    -4.650000000
H    -5.888000000    -5.507000000    -4.831000000
H    -6.876000000    -5.345000000    -3.695000000
O    -6.088000000     2.970000000    -6.586000000
H    -6.856000000     3.505000000    -6.787000000
H    -6.254000000     2.137000000    -7.025000000
O    -3.281000000     1.996000000    -8.416000000
H    -3.420000000     1.401000000    -9.152000000
H    -2.783000000     1.481000000    -7.782000000
O    -0.914000000    -2.592000000    -6.552000000
H    -0.702000000    -1.915000000    -7.194000000
H    -1.052000000    -2.112000000    -5.735000000
O    -1.833000000     0.659000000    -6.417000000
H    -1.759000000    -0.110000000    -5.852000000
H    -1.049000000     0.630000000    -6.965000000
O    -4.622000000     3.538000000    -4.278000000
H    -5.238000000     3.364000000    -3.566000000
H    -5.168000000     3.578000000    -5.063000000
O    -6.637000000    -1.833000000    -5.064000000
H    -6.703000000    -1.483000000    -4.175000000
H    -5.826000000    -1.459000000    -5.408000000
O    -3.518000000     6.293000000    -5.026000000
H    -3.270000000     5.433000000    -5.365000000
H    -4.431000000     6.191000000    -4.758000000
O    -4.141000000    -5.567000000    -4.854000000
H    -3.691000000    -5.993000000    -5.584000000
H    -4.002000000    -4.631000000    -5.000000000
O    -8.400000000    -1.274000000    -1.811000000
H    -7.510000000    -0.967000000    -1.982000000
H    -8.341000000    -2.227000000    -1.882000000
