215
-1445.21106
C    -3.650000000     3.122000000     1.751000000
H    -3.117000000     4.037000000     1.997000000
C    -3.375000000     1.895000000     2.410000000
C    -4.291000000     0.871000000     2.173000000
H    -4.123000000     0.001000000     2.803000000
C    -2.146000000     1.771000000     3.368000000
O    -1.547000000     3.090000000     3.642000000
H    -1.374000000     1.369000000     2.695000000
O    -2.409000000     0.882000000     4.480000000
C    -1.393000000    -0.134000000     4.500000000
C    -1.698000000    -1.473000000     4.149000000
H    -2.737000000    -1.684000000     3.910000000
C    -0.733000000    -2.459000000     4.104000000
O    -1.026000000    -3.746000000     3.574000000
C     0.628000000    -2.136000000     4.310000000
C     1.733000000    -3.225000000     4.286000000
H     2.521000000    -3.092000000     5.031000000
C     2.405000000    -3.280000000     2.951000000
C     3.676000000    -2.656000000     2.665000000
H     4.240000000    -2.224000000     3.487000000
H     1.309000000    -4.206000000     4.511000000
C     0.896000000    -0.875000000     4.786000000
H     1.915000000    -0.652000000     5.093000000
C    -0.066000000     0.173000000     4.829000000
C     0.325000000     1.576000000     5.253000000
H     1.237000000     1.569000000     5.854000000
H    -0.454000000     2.017000000     5.878000000
C     0.766000000     2.420000000     4.109000000
C     2.071000000     2.379000000     3.679000000
H     2.819000000     1.888000000     4.297000000
C    -0.185000000     3.190000000     3.437000000
C     0.203000000     3.928000000     2.324000000
H    -0.594000000     4.386000000     1.745000000
C     1.504000000     3.762000000     1.782000000
O     1.735000000     4.386000000     0.549000000
C     1.968000000     3.547000000    -0.579000000
C     1.199000000     4.131000000    -1.731000000
C     1.645000000     3.880000000    -3.003000000
H     2.563000000     3.334000000    -3.204000000
C     0.030000000     4.893000000    -1.607000000
H    -0.401000000     5.220000000    -0.664000000
O     3.380000000     3.450000000    -0.915000000
H     1.539000000     2.564000000    -0.334000000
C     2.451000000     3.101000000     2.512000000
C     3.927000000     3.182000000     2.045000000
H     4.553000000     3.123000000     2.937000000
H     3.988000000     4.184000000     1.616000000
C     4.184000000     2.063000000     1.013000000
C     4.653000000     0.853000000     1.497000000
H     4.715000000     0.613000000     2.556000000
C     3.992000000     2.297000000    -0.363000000
C     4.294000000     1.225000000    -1.209000000
H     4.118000000     1.278000000    -2.280000000
C     4.749000000     0.008000000    -0.757000000
O     4.762000000    -1.007000000    -1.651000000
C     3.528000000    -1.734000000    -1.679000000
C     2.930000000    -1.898000000    -3.046000000
C     3.106000000    -0.954000000    -4.057000000
H     3.681000000    -0.056000000    -3.842000000
C     2.094000000    -2.979000000    -3.262000000
H     1.900000000    -3.687000000    -2.460000000
O     3.716000000    -3.054000000    -0.989000000
H     2.830000000    -1.204000000    -1.014000000
C     4.897000000    -0.236000000     0.616000000
C     5.341000000    -1.612000000     1.117000000
H     5.914000000    -1.416000000     2.025000000
H     6.033000000    -2.017000000     0.375000000
C     4.177000000    -2.515000000     1.350000000
C     3.433000000    -3.105000000     0.330000000
C     2.329000000    -3.823000000     0.635000000
H     1.765000000    -4.392000000    -0.098000000
C     1.731000000    -3.870000000     1.944000000
O     0.539000000    -4.597000000     2.036000000
C    -0.659000000    -3.815000000     2.156000000
H    -0.319000000    -2.809000000     1.867000000
C    -1.819000000    -4.269000000     1.274000000
C    -3.063000000    -4.097000000     1.754000000
H    -3.279000000    -3.756000000     2.764000000
C    -1.521000000    -4.891000000     0.040000000
H    -0.542000000    -4.860000000    -0.431000000
C    -2.597000000    -5.347000000    -0.724000000
O    -2.475000000    -5.952000000    -1.989000000
C    -3.880000000    -5.172000000    -0.247000000
H    -4.714000000    -5.501000000    -0.861000000
C    -4.114000000    -4.610000000     0.975000000
O    -5.414000000    -4.681000000     1.524000000
C    -6.079000000    -3.542000000     1.927000000
C    -5.968000000    -2.276000000     1.224000000
H    -5.425000000    -2.229000000     0.284000000
C    -6.839000000    -3.549000000     3.120000000
H    -6.991000000    -4.477000000     3.664000000
C    -7.324000000    -2.335000000     3.695000000
H    -7.929000000    -2.436000000     4.592000000
C    -7.049000000    -1.127000000     3.099000000
H    -7.356000000    -0.240000000     3.648000000
C    -6.476000000    -1.081000000     1.795000000
O    -6.375000000     0.078000000     1.078000000
C    -5.386000000     1.016000000     1.302000000
C    -5.623000000     2.204000000     0.667000000
H    -6.470000000     2.443000000     0.030000000
C    -4.807000000     3.335000000     0.995000000
O    -5.083000000     4.567000000     0.482000000
C    -4.141000000     5.556000000     0.002000000
C    -3.406000000     5.303000000    -1.114000000
H    -3.601000000     4.408000000    -1.698000000
C    -3.919000000     6.702000000     0.764000000
H    -4.520000000     6.909000000     1.645000000
C    -3.008000000     7.650000000     0.281000000
H    -2.774000000     8.463000000     0.964000000
C    -2.245000000     7.407000000    -0.902000000
H    -1.404000000     8.036000000    -1.184000000
C    -2.486000000     6.198000000    -1.525000000
O    -1.819000000     5.963000000    -2.682000000
C    -0.615000000     5.336000000    -2.744000000
C    -0.031000000     5.203000000    -4.002000000
H    -0.541000000     5.562000000    -4.892000000
C     1.075000000     4.412000000    -4.158000000
O     1.625000000     4.179000000    -5.393000000
C     2.561000000     3.274000000    -5.699000000
C     2.273000000     1.899000000    -5.706000000
H     1.257000000     1.615000000    -5.442000000
C     3.903000000     3.671000000    -6.043000000
H     4.181000000     4.719000000    -5.967000000
C     4.857000000     2.743000000    -6.449000000
H     5.883000000     3.078000000    -6.576000000
C     4.412000000     1.436000000    -6.690000000
H     5.047000000     0.674000000    -7.133000000
C     3.153000000     0.998000000    -6.231000000
O     2.720000000    -0.351000000    -6.444000000
C     2.556000000    -1.234000000    -5.340000000
C     1.726000000    -2.295000000    -5.545000000
H     1.205000000    -2.477000000    -6.481000000
C     1.634000000    -3.257000000    -4.538000000
O     0.890000000    -4.324000000    -4.836000000
C     0.406000000    -5.233000000    -3.938000000
C     1.252000000    -6.325000000    -3.740000000
H     2.243000000    -6.423000000    -4.178000000
C     0.885000000    -7.280000000    -2.768000000
H     1.585000000    -8.046000000    -2.446000000
C    -0.316000000    -7.089000000    -2.144000000
H    -0.585000000    -7.833000000    -1.399000000
C    -1.231000000    -6.099000000    -2.567000000
C    -0.893000000    -5.077000000    -3.455000000
H    -1.568000000    -4.232000000    -3.566000000
C    -2.357000000    -1.387000000    -0.840000000
H    -3.304000000    -1.891000000    -1.011000000
C    -1.884000000    -0.918000000     0.419000000
H    -2.516000000    -1.037000000     1.295000000
C    -0.748000000    -0.136000000     0.485000000
H    -0.337000000     0.182000000     1.480000000
C     0.048000000     0.025000000    -0.647000000
H     0.969000000     0.595000000    -0.568000000
C    -0.341000000    -0.554000000    -1.831000000
H     0.367000000    -0.570000000    -2.656000000
C    -1.604000000    -1.200000000    -1.981000000
C    -1.988000000    -1.583000000    -3.411000000
O    -1.273000000    -1.374000000    -4.371000000
O    -3.099000000    -1.992000000    -3.650000000
O    -7.391000000    -2.103000000    -6.811000000
H    -7.084000000    -1.203000000    -6.703000000
H    -6.643000000    -2.569000000    -7.183000000
O    -3.005000000     1.785000000    -1.883000000
H    -2.580000000     2.140000000    -2.664000000
H    -2.401000000     1.114000000    -1.565000000
O    -2.002000000     2.614000000    -4.500000000
H    -1.179000000     3.091000000    -4.608000000
H    -1.851000000     1.774000000    -4.934000000
O    -2.741000000    -5.864000000    -6.382000000
H    -2.319000000    -5.297000000    -7.027000000
H    -2.578000000    -6.752000000    -6.700000000
O    -4.465000000     3.508000000    -4.007000000
H    -4.650000000     2.793000000    -3.398000000
H    -3.629000000     3.270000000    -4.408000000
O    -0.034000000    -4.540000000    -7.566000000
H     0.768000000    -4.962000000    -7.876000000
H    -0.353000000    -5.114000000    -6.870000000
O    -5.311000000    -2.679000000    -2.453000000
H    -4.518000000    -2.293000000    -2.824000000
H    -5.295000000    -3.589000000    -2.749000000
O    -6.682000000     1.896000000    -4.339000000
H    -5.872000000     1.410000000    -4.182000000
H    -6.390000000     2.755000000    -4.645000000
O    -4.497000000     0.067000000    -4.656000000
H    -3.924000000    -0.658000000    -4.407000000
H    -4.323000000     0.201000000    -5.588000000
O    -4.154000000    -4.283000000    -4.622000000
H    -3.807000000    -3.416000000    -4.411000000
H    -3.669000000    -4.552000000    -5.402000000
O    -1.078000000     0.505000000    -5.971000000
H    -1.207000000    -0.241000000    -5.386000000
H    -1.095000000     0.127000000    -6.850000000
O    -5.067000000    -3.626000000    -7.827000000
H    -4.226000000    -3.238000000    -7.583000000
H    -5.221000000    -3.323000000    -8.721000000
O    -3.477000000     0.385000000    -8.617000000
H    -3.522000000    -0.467000000    -8.183000000
H    -2.801000000     0.277000000    -9.287000000
O    -0.746000000     3.764000000    -7.507000000
H     0.160000000     4.007000000    -7.698000000
H    -0.699000000     2.840000000    -7.260000000
O    -7.006000000    -4.797000000    -4.586000000
H    -7.557000000    -4.268000000    -5.163000000
H    -6.117000000    -4.483000000    -4.752000000
O     0.344000000    -2.514000000    -9.569000000
H     0.194000000    -2.908000000    -8.710000000
H     0.228000000    -3.235000000   -10.188000000
O    -4.529000000    -7.041000000    -4.333000000
H    -3.880000000    -6.824000000    -5.003000000
H    -4.749000000    -6.200000000    -3.932000000
O    -1.939000000    -2.795000000    -6.563000000
H    -1.200000000    -3.399000000    -6.637000000
H    -1.811000000    -2.363000000    -5.719000000
O    -6.666000000    -0.356000000    -2.050000000
H    -6.133000000     0.282000000    -1.575000000
H    -6.084000000    -1.106000000    -2.177000000
