215
-1422.51932
C    -4.087000000     2.415000000     1.916000000
H    -3.516000000     3.300000000     2.186000000
C    -3.563000000     1.138000000     2.252000000
C    -4.121000000     0.029000000     1.646000000
H    -3.649000000    -0.931000000     1.837000000
C    -2.316000000     1.059000000     3.149000000
O    -2.042000000     2.330000000     3.783000000
H    -1.491000000     0.740000000     2.496000000
O    -2.499000000     0.065000000     4.254000000
C    -1.454000000    -0.792000000     4.417000000
C    -1.556000000    -2.052000000     3.878000000
H    -2.482000000    -2.444000000     3.465000000
C    -0.439000000    -2.834000000     3.777000000
O    -0.620000000    -3.997000000     3.114000000
C     0.805000000    -2.418000000     4.322000000
C     2.035000000    -3.260000000     4.085000000
H     2.860000000    -3.137000000     4.789000000
C     2.616000000    -2.956000000     2.708000000
C     3.592000000    -1.956000000     2.565000000
H     4.074000000    -1.620000000     3.479000000
H     1.688000000    -4.294000000     4.142000000
C     0.874000000    -1.235000000     4.948000000
H     1.855000000    -0.887000000     5.260000000
C    -0.198000000    -0.339000000     4.932000000
C     0.000000000     1.171000000     5.500000000
H     0.812000000     1.122000000     6.228000000
H    -0.919000000     1.464000000     6.012000000
C     0.315000000     2.187000000     4.331000000
C     1.628000000     2.455000000     4.068000000
H     2.363000000     1.837000000     4.577000000
C    -0.737000000     2.759000000     3.588000000
C    -0.420000000     3.495000000     2.503000000
H    -1.269000000     3.835000000     1.915000000
C     0.907000000     3.863000000     2.272000000
O     1.196000000     4.742000000     1.217000000
C     1.513000000     4.076000000     0.003000000
C     0.710000000     4.637000000    -1.150000000
C     1.141000000     4.358000000    -2.421000000
H     2.047000000     3.792000000    -2.623000000
C    -0.563000000     5.180000000    -0.920000000
H    -0.920000000     5.315000000     0.098000000
O     2.908000000     4.051000000    -0.207000000
H     1.162000000     3.039000000     0.109000000
C     1.944000000     3.242000000     3.016000000
C     3.367000000     3.563000000     2.645000000
H     4.069000000     3.307000000     3.441000000
H     3.339000000     4.615000000     2.354000000
C     3.845000000     2.644000000     1.507000000
C     4.537000000     1.500000000     1.742000000
H     4.735000000     1.346000000     2.800000000
C     3.502000000     2.881000000     0.160000000
C     3.941000000     2.066000000    -0.896000000
H     3.580000000     2.143000000    -1.918000000
C     4.591000000     0.893000000    -0.524000000
O     4.736000000    -0.050000000    -1.538000000
C     3.721000000    -1.034000000    -1.706000000
C     3.249000000    -1.329000000    -3.168000000
C     3.266000000    -0.256000000    -4.103000000
H     3.732000000     0.654000000    -3.733000000
C     2.621000000    -2.507000000    -3.598000000
H     2.659000000    -3.309000000    -2.866000000
O     4.199000000    -2.223000000    -1.124000000
H     2.848000000    -0.734000000    -1.107000000
C     4.851000000     0.577000000     0.760000000
C     5.296000000    -0.766000000     1.133000000
H     5.806000000    -0.705000000     2.097000000
H     6.059000000    -1.098000000     0.425000000
C     4.178000000    -1.747000000     1.303000000
C     3.749000000    -2.475000000     0.165000000
C     2.717000000    -3.394000000     0.320000000
H     2.307000000    -3.891000000    -0.555000000
C     2.195000000    -3.608000000     1.576000000
O     1.182000000    -4.576000000     1.667000000
C    -0.150000000    -4.028000000     1.755000000
H    -0.174000000    -2.957000000     1.505000000
C    -1.157000000    -4.782000000     0.896000000
C    -2.496000000    -4.829000000     1.268000000
H    -2.819000000    -4.614000000     2.283000000
C    -0.769000000    -5.364000000    -0.369000000
H     0.226000000    -5.257000000    -0.792000000
C    -1.740000000    -5.863000000    -1.253000000
O    -1.483000000    -6.260000000    -2.532000000
C    -3.027000000    -5.800000000    -0.833000000
H    -3.800000000    -6.304000000    -1.407000000
C    -3.396000000    -5.318000000     0.373000000
O    -4.715000000    -5.426000000     0.742000000
C    -5.412000000    -4.350000000     1.205000000
C    -5.249000000    -3.142000000     0.489000000
H    -4.542000000    -3.038000000    -0.330000000
C    -6.341000000    -4.484000000     2.226000000
H    -6.360000000    -5.458000000     2.709000000
C    -7.098000000    -3.290000000     2.578000000
H    -7.819000000    -3.377000000     3.387000000
C    -6.901000000    -2.116000000     1.874000000
H    -7.511000000    -1.235000000     2.055000000
C    -6.007000000    -2.050000000     0.825000000
O    -5.844000000    -0.847000000     0.132000000
C    -5.283000000     0.154000000     0.891000000
C    -5.776000000     1.427000000     0.628000000
H    -6.610000000     1.584000000    -0.051000000
C    -5.243000000     2.580000000     1.174000000
O    -5.853000000     3.797000000     0.773000000
C    -5.052000000     4.861000000     0.617000000
C    -4.269000000     4.972000000    -0.613000000
H    -4.173000000     4.103000000    -1.258000000
C    -4.908000000     5.949000000     1.541000000
H    -5.291000000     5.967000000     2.558000000
C    -3.915000000     6.929000000     1.320000000
H    -3.677000000     7.717000000     2.030000000
C    -3.144000000     6.964000000     0.151000000
H    -2.421000000     7.757000000    -0.021000000
C    -3.275000000     6.022000000    -0.813000000
O    -2.555000000     6.034000000    -1.943000000
C    -1.277000000     5.647000000    -2.024000000
C    -0.856000000     5.329000000    -3.354000000
H    -1.518000000     5.489000000    -4.202000000
C     0.358000000     4.738000000    -3.494000000
O     0.768000000     4.541000000    -4.778000000
C     1.889000000     3.855000000    -5.148000000
C     1.821000000     2.540000000    -5.663000000
H     0.875000000     2.006000000    -5.698000000
C     3.194000000     4.474000000    -5.060000000
H     3.282000000     5.511000000    -4.746000000
C     4.360000000     3.817000000    -5.431000000
H     5.320000000     4.318000000    -5.342000000
C     4.243000000     2.477000000    -5.819000000
H     5.164000000     1.923000000    -5.985000000
C     2.994000000     1.904000000    -5.948000000
O     2.990000000     0.655000000    -6.374000000
C     2.874000000    -0.430000000    -5.452000000
C     2.284000000    -1.657000000    -5.793000000
H     1.872000000    -1.824000000    -6.785000000
C     2.120000000    -2.648000000    -4.894000000
O     1.523000000    -3.807000000    -5.293000000
C     1.348000000    -4.841000000    -4.540000000
C     2.367000000    -5.742000000    -4.304000000
H     3.324000000    -5.558000000    -4.785000000
C     2.076000000    -6.809000000    -3.452000000
H     2.845000000    -7.573000000    -3.376000000
C     0.833000000    -6.886000000    -2.846000000
H     0.690000000    -7.736000000    -2.184000000
C    -0.243000000    -6.063000000    -3.169000000
C     0.044000000    -5.023000000    -4.053000000
H    -0.651000000    -4.306000000    -4.482000000
C    -2.048000000    -1.093000000    -1.072000000
H    -2.994000000    -1.580000000    -1.294000000
C    -1.430000000    -1.199000000     0.156000000
H    -1.784000000    -1.887000000     0.919000000
C    -0.354000000    -0.458000000     0.519000000
H     0.201000000    -0.631000000     1.438000000
C     0.071000000     0.546000000    -0.320000000
H     0.941000000     1.067000000     0.069000000
C    -0.569000000     0.743000000    -1.580000000
H    -0.235000000     1.550000000    -2.227000000
C    -1.612000000    -0.113000000    -1.958000000
C    -2.332000000     0.053000000    -3.264000000
O    -2.058000000     0.857000000    -4.097000000
O    -3.221000000    -0.718000000    -3.497000000
O    -7.602000000    -0.380000000    -5.003000000
H    -7.213000000     0.409000000    -5.381000000
H    -6.867000000    -0.836000000    -4.593000000
O    -3.448000000     3.182000000    -4.120000000
H    -3.164000000     3.645000000    -4.908000000
H    -2.878000000     2.414000000    -4.075000000
O    -2.894000000     4.384000000    -6.403000000
H    -2.817000000     5.336000000    -6.459000000
H    -3.438000000     4.143000000    -7.153000000
O    -5.378000000    -3.776000000    -4.608000000
H    -5.186000000    -3.150000000    -3.910000000
H    -4.604000000    -4.338000000    -4.646000000
O    -7.458000000     0.968000000    -7.656000000
H    -7.360000000     1.429000000    -8.489000000
H    -6.802000000     1.365000000    -7.083000000
O    -1.912000000     2.843000000    -9.726000000
H    -2.376000000     2.199000000    -9.191000000
H    -2.594000000     3.449000000   -10.016000000
O    -5.552000000     4.693000000    -3.785000000
H    -4.734000000     4.217000000    -3.643000000
H    -5.308000000     5.428000000    -4.347000000
O    -3.206000000    -5.118000000    -4.884000000
H    -2.299000000    -5.372000000    -5.051000000
H    -3.707000000    -5.925000000    -5.004000000
O    -5.555000000    -1.513000000    -2.696000000
H    -5.797000000    -0.763000000    -2.153000000
H    -4.698000000    -1.282000000    -3.055000000
O    -2.152000000    -2.368000000    -5.369000000
H    -2.296000000    -3.222000000    -4.961000000
H    -2.539000000    -1.742000000    -4.757000000
O    -7.793000000     3.362000000    -2.524000000
H    -8.118000000     4.241000000    -2.327000000
H    -6.843000000     3.465000000    -2.583000000
O    -4.129000000    -1.887000000    -7.972000000
H    -3.286000000    -1.777000000    -8.413000000
H    -4.129000000    -2.799000000    -7.680000000
O    -1.442000000     1.843000000    -6.570000000
H    -2.278000000     2.046000000    -6.988000000
H    -1.681000000     1.514000000    -5.703000000
O    -1.085000000    -0.990000000    -7.723000000
H    -1.354000000    -0.099000000    -7.499000000
H    -1.150000000    -1.475000000    -6.901000000
O    -6.461000000     2.474000000    -5.252000000
H    -6.478000000     3.252000000    -4.694000000
H    -5.531000000     2.280000000    -5.364000000
O    -7.935000000    -2.600000000    -1.777000000
H    -8.461000000    -2.366000000    -2.542000000
H    -7.032000000    -2.443000000    -2.050000000
O     0.270000000     2.696000000    -8.342000000
H    -0.476000000     2.867000000    -8.917000000
H    -0.113000000     2.286000000    -7.567000000
O    -3.504000000     1.212000000    -8.754000000
H    -3.891000000     0.699000000    -8.045000000
H    -3.905000000     0.862000000    -9.549000000
O    -4.108000000     0.410000000    -5.983000000
H    -4.149000000    -0.475000000    -6.346000000
H    -3.652000000     0.304000000    -5.148000000
