215
-1467.03274
C    -4.041000000     2.774000000     1.717000000
H    -3.553000000     3.645000000     2.148000000
C    -3.666000000     1.534000000     2.206000000
C    -4.341000000     0.445000000     1.698000000
H    -4.026000000    -0.535000000     2.048000000
C    -2.461000000     1.283000000     3.057000000
O    -1.997000000     2.479000000     3.711000000
H    -1.580000000     0.951000000     2.488000000
O    -2.607000000     0.263000000     4.163000000
C    -1.619000000    -0.727000000     4.191000000
C    -1.947000000    -1.936000000     3.606000000
H    -2.916000000    -2.100000000     3.143000000
C    -0.964000000    -2.902000000     3.521000000
O    -1.301000000    -4.034000000     2.811000000
C     0.344000000    -2.729000000     4.155000000
C     1.435000000    -3.847000000     4.118000000
H     2.167000000    -3.731000000     4.920000000
C     2.193000000    -3.714000000     2.803000000
C     3.249000000    -2.806000000     2.786000000
H     3.497000000    -2.268000000     3.698000000
H     0.856000000    -4.771000000     4.171000000
C     0.657000000    -1.503000000     4.762000000
H     1.627000000    -1.429000000     5.247000000
C    -0.424000000    -0.527000000     4.870000000
C    -0.101000000     0.848000000     5.479000000
H     0.700000000     0.762000000     6.217000000
H    -0.927000000     1.243000000     6.074000000
C     0.313000000     1.850000000     4.384000000
C     1.734000000     2.049000000     4.155000000
H     2.393000000     1.455000000     4.783000000
C    -0.644000000     2.646000000     3.648000000
C    -0.150000000     3.491000000     2.706000000
H    -0.881000000     3.961000000     2.052000000
C     1.229000000     3.750000000     2.458000000
O     1.512000000     4.570000000     1.388000000
C     1.917000000     3.951000000     0.228000000
C     1.351000000     4.586000000    -1.019000000
C     2.139000000     4.777000000    -2.146000000
H     3.197000000     4.549000000    -2.044000000
C    -0.006000000     4.774000000    -1.074000000
H    -0.639000000     4.525000000    -0.226000000
O     3.390000000     3.779000000     0.206000000
H     1.424000000     2.969000000     0.174000000
C     2.145000000     2.975000000     3.217000000
C     3.650000000     3.114000000     3.023000000
H     4.156000000     2.940000000     3.975000000
H     3.818000000     4.146000000     2.708000000
C     4.155000000     2.184000000     1.924000000
C     4.474000000     0.842000000     2.216000000
H     4.418000000     0.561000000     3.265000000
C     3.958000000     2.529000000     0.609000000
C     4.248000000     1.657000000    -0.447000000
H     4.096000000     1.889000000    -1.498000000
C     4.712000000     0.368000000    -0.107000000
O     4.801000000    -0.563000000    -1.094000000
C     3.611000000    -1.390000000    -1.279000000
C     3.089000000    -1.298000000    -2.662000000
C     3.576000000    -0.282000000    -3.565000000
H     4.405000000     0.364000000    -3.287000000
C     2.183000000    -2.204000000    -3.171000000
H     1.702000000    -2.864000000    -2.454000000
O     3.926000000    -2.696000000    -0.822000000
H     2.891000000    -0.982000000    -0.555000000
C     4.770000000    -0.095000000     1.216000000
C     5.080000000    -1.529000000     1.609000000
H     5.591000000    -1.562000000     2.574000000
H     5.877000000    -1.956000000     0.997000000
C     3.895000000    -2.455000000     1.580000000
C     3.399000000    -2.997000000     0.392000000
C     2.366000000    -3.832000000     0.378000000
H     2.007000000    -4.135000000    -0.602000000
C     1.689000000    -4.146000000     1.548000000
O     0.489000000    -4.844000000     1.517000000
C    -0.731000000    -4.115000000     1.469000000
H    -0.474000000    -3.090000000     1.162000000
C    -1.716000000    -4.739000000     0.507000000
C    -3.048000000    -4.785000000     0.932000000
H    -3.325000000    -4.453000000     1.930000000
C    -1.341000000    -5.254000000    -0.721000000
H    -0.271000000    -5.333000000    -0.895000000
C    -2.228000000    -5.668000000    -1.693000000
O    -1.819000000    -6.170000000    -2.869000000
C    -3.604000000    -5.766000000    -1.288000000
H    -4.392000000    -6.023000000    -1.991000000
C    -4.005000000    -5.243000000     0.001000000
O    -5.364000000    -5.177000000     0.179000000
C    -6.043000000    -4.135000000     0.842000000
C    -5.851000000    -2.882000000     0.294000000
H    -5.259000000    -2.765000000    -0.610000000
C    -6.834000000    -4.368000000     1.980000000
H    -6.834000000    -5.373000000     2.392000000
C    -7.473000000    -3.295000000     2.558000000
H    -8.170000000    -3.421000000     3.383000000
C    -7.172000000    -1.965000000     2.096000000
H    -7.445000000    -1.034000000     2.585000000
C    -6.386000000    -1.785000000     0.947000000
O    -6.155000000    -0.521000000     0.365000000
C    -5.501000000     0.556000000     0.900000000
C    -5.913000000     1.826000000     0.498000000
H    -6.740000000     1.864000000    -0.207000000
C    -5.122000000     2.930000000     0.882000000
O    -5.563000000     4.183000000     0.420000000
C    -4.675000000     5.080000000    -0.016000000
C    -3.821000000     4.758000000    -1.046000000
H    -3.919000000     3.821000000    -1.587000000
C    -4.653000000     6.272000000     0.627000000
H    -5.315000000     6.398000000     1.480000000
C    -3.732000000     7.192000000     0.265000000
H    -3.626000000     8.092000000     0.865000000
C    -2.796000000     6.896000000    -0.758000000
H    -1.977000000     7.587000000    -0.939000000
C    -2.822000000     5.618000000    -1.407000000
O    -1.953000000     5.357000000    -2.433000000
C    -0.587000000     5.234000000    -2.282000000
C     0.205000000     5.449000000    -3.437000000
H    -0.153000000     5.864000000    -4.376000000
C     1.569000000     5.200000000    -3.309000000
O     2.355000000     5.323000000    -4.391000000
C     3.275000000     4.385000000    -4.758000000
C     2.914000000     3.089000000    -5.226000000
H     1.868000000     2.838000000    -5.385000000
C     4.601000000     4.772000000    -4.613000000
H     4.820000000     5.778000000    -4.265000000
C     5.595000000     3.924000000    -4.987000000
H     6.646000000     4.181000000    -4.883000000
C     5.298000000     2.576000000    -5.356000000
H     6.111000000     1.865000000    -5.480000000
C     3.932000000     2.190000000    -5.365000000
O     3.731000000     0.848000000    -5.693000000
C     3.186000000    -0.160000000    -4.863000000
C     2.189000000    -0.974000000    -5.255000000
H     1.793000000    -0.880000000    -6.263000000
C     1.713000000    -2.015000000    -4.445000000
O     0.687000000    -2.773000000    -4.949000000
C     0.593000000    -4.092000000    -4.560000000
C     1.636000000    -5.033000000    -4.866000000
H     2.604000000    -4.679000000    -5.213000000
C     1.460000000    -6.375000000    -4.545000000
H     2.206000000    -7.079000000    -4.904000000
C     0.343000000    -6.721000000    -3.748000000
H     0.195000000    -7.750000000    -3.433000000
C    -0.645000000    -5.800000000    -3.465000000
C    -0.463000000    -4.520000000    -3.824000000
H    -1.250000000    -3.783000000    -3.683000000
C    -1.845000000    -0.435000000    -1.337000000
H    -2.755000000    -0.894000000    -1.714000000
C    -1.465000000    -0.833000000    -0.050000000
H    -2.066000000    -1.453000000     0.611000000
C    -0.183000000    -0.519000000     0.379000000
H     0.202000000    -0.900000000     1.324000000
C     0.679000000     0.233000000    -0.373000000
H     1.692000000     0.463000000    -0.050000000
C     0.252000000     0.671000000    -1.676000000
H     0.921000000     1.232000000    -2.324000000
C    -1.001000000     0.368000000    -2.093000000
C    -1.471000000     0.862000000    -3.482000000
O    -0.817000000     1.590000000    -4.224000000
O    -2.504000000     0.411000000    -3.945000000
O    -7.853000000     1.545000000    -2.897000000
H    -8.624000000     1.506000000    -3.463000000
H    -7.419000000     2.364000000    -3.139000000
O    -7.784000000    -0.246000000    -5.424000000
H    -6.999000000    -0.091000000    -4.900000000
H    -7.477000000    -0.763000000    -6.169000000
O    -1.642000000     3.951000000    -5.417000000
H    -1.945000000     4.645000000    -4.830000000
H    -1.214000000     3.319000000    -4.839000000
O    -0.373000000     3.441000000    -7.687000000
H    -0.856000000     4.015000000    -8.282000000
H    -0.636000000     3.728000000    -6.812000000
O    -5.799000000    -2.725000000    -3.469000000
H    -5.733000000    -1.771000000    -3.514000000
H    -5.171000000    -3.040000000    -4.118000000
O    -3.925000000    -4.314000000    -5.039000000
H    -4.148000000    -5.059000000    -4.481000000
H    -3.303000000    -4.669000000    -5.674000000
O    -5.415000000    -0.044000000    -3.775000000
H    -5.751000000     0.609000000    -3.161000000
H    -4.563000000     0.298000000    -4.047000000
O    -2.531000000    -1.632000000    -5.857000000
H    -3.147000000    -2.124000000    -5.315000000
H    -2.381000000    -0.820000000    -5.373000000
O    -6.548000000     3.643000000    -3.779000000
H    -6.592000000     4.300000000    -3.084000000
H    -5.705000000     3.800000000    -4.204000000
O    -0.082000000     0.791000000    -6.846000000
H    -0.046000000     1.714000000    -7.096000000
H    -0.299000000     0.804000000    -5.914000000
O    -0.543000000    -1.842000000    -7.850000000
H    -0.159000000    -1.170000000    -7.286000000
H    -1.413000000    -1.996000000    -7.481000000
O    -5.696000000     2.064000000    -7.419000000
H    -5.032000000     2.040000000    -6.730000000
H    -5.467000000     1.337000000    -7.998000000
O    -7.933000000    -0.926000000    -1.673000000
H    -7.062000000    -0.879000000    -1.281000000
H    -8.142000000    -0.021000000    -1.904000000
O    -7.667000000     3.421000000    -6.148000000
H    -7.503000000     3.564000000    -5.216000000
H    -6.948000000     2.859000000    -6.435000000
O    -1.869000000    -5.107000000    -7.132000000
H    -1.198000000    -5.788000000    -7.084000000
H    -1.394000000    -4.292000000    -6.965000000
O     1.600000000     2.736000000    -9.547000000
H     0.851000000     2.899000000    -8.974000000
H     1.559000000     1.798000000    -9.734000000
O    -2.196000000     1.279000000    -8.715000000
H    -2.232000000     2.201000000    -8.461000000
H    -1.377000000     0.958000000    -8.338000000
O    -3.994000000    -0.770000000    -7.928000000
H    -3.628000000    -0.924000000    -7.057000000
H    -3.487000000    -0.036000000    -8.275000000
O    -3.603000000     2.087000000    -5.559000000
H    -3.119000000     1.443000000    -5.042000000
H    -2.959000000     2.766000000    -5.760000000
