215
-1446.83521
C    -3.646000000     2.694000000     0.685000000
H    -3.002000000     3.570000000     0.668000000
C    -3.476000000     1.650000000     1.648000000
C    -4.321000000     0.584000000     1.551000000
H    -4.152000000    -0.263000000     2.211000000
C    -2.257000000     1.711000000     2.653000000
O    -1.852000000     3.044000000     3.010000000
H    -1.478000000     1.178000000     2.089000000
O    -2.492000000     0.953000000     3.870000000
C    -1.479000000     0.089000000     4.287000000
C    -1.711000000    -1.224000000     3.942000000
H    -2.627000000    -1.594000000     3.488000000
C    -0.790000000    -2.173000000     4.109000000
O    -1.049000000    -3.454000000     3.689000000
C     0.453000000    -1.795000000     4.662000000
C     1.565000000    -2.848000000     4.719000000
H     2.188000000    -2.637000000     5.590000000
C     2.246000000    -2.893000000     3.316000000
C     3.379000000    -1.994000000     3.116000000
H     3.727000000    -1.368000000     3.934000000
H     1.164000000    -3.820000000     5.014000000
C     0.750000000    -0.417000000     4.975000000
H     1.650000000    -0.255000000     5.563000000
C    -0.232000000     0.524000000     4.802000000
C    -0.020000000     2.028000000     5.123000000
H     0.734000000     1.960000000     5.910000000
H    -0.909000000     2.450000000     5.597000000
C     0.442000000     2.890000000     3.915000000
C     1.802000000     3.070000000     3.775000000
H     2.543000000     2.687000000     4.473000000
C    -0.515000000     3.318000000     2.960000000
C    -0.046000000     3.960000000     1.850000000
H    -0.695000000     4.371000000     1.081000000
C     1.301000000     4.207000000     1.666000000
O     1.631000000     4.795000000     0.530000000
C     1.985000000     3.935000000    -0.600000000
C     1.312000000     4.340000000    -1.912000000
C     1.960000000     4.050000000    -3.120000000
H     2.893000000     3.492000000    -3.084000000
C     0.203000000     5.149000000    -1.847000000
H    -0.335000000     5.251000000    -0.908000000
O     3.424000000     3.894000000    -0.636000000
H     1.615000000     2.930000000    -0.352000000
C     2.258000000     3.728000000     2.594000000
C     3.758000000     3.840000000     2.256000000
H     4.312000000     3.900000000     3.195000000
H     3.989000000     4.782000000     1.754000000
C     4.082000000     2.613000000     1.304000000
C     4.659000000     1.450000000     1.844000000
H     4.717000000     1.334000000     2.923000000
C     3.983000000     2.781000000    -0.062000000
C     4.263000000     1.633000000    -0.880000000
H     4.225000000     1.734000000    -1.962000000
C     4.633000000     0.442000000    -0.334000000
O     4.662000000    -0.663000000    -1.224000000
C     3.507000000    -1.636000000    -1.182000000
C     2.968000000    -1.977000000    -2.516000000
C     3.243000000    -1.225000000    -3.658000000
H     4.056000000    -0.505000000    -3.615000000
C     2.004000000    -2.987000000    -2.640000000
H     1.894000000    -3.736000000    -1.860000000
O     3.893000000    -2.810000000    -0.454000000
H     2.632000000    -1.162000000    -0.712000000
C     4.846000000     0.346000000     1.030000000
C     5.127000000    -0.983000000     1.629000000
H     5.625000000    -0.842000000     2.590000000
H     5.857000000    -1.479000000     0.985000000
C     3.932000000    -1.899000000     1.886000000
C     3.450000000    -2.769000000     0.859000000
C     2.373000000    -3.595000000     1.074000000
H     2.101000000    -4.316000000     0.307000000
C     1.682000000    -3.551000000     2.237000000
O     0.572000000    -4.314000000     2.269000000
C    -0.715000000    -3.720000000     2.242000000
H    -0.793000000    -2.801000000     1.642000000
C    -1.730000000    -4.684000000     1.588000000
C    -3.085000000    -4.574000000     1.962000000
H    -3.374000000    -3.999000000     2.838000000
C    -1.387000000    -5.523000000     0.569000000
H    -0.369000000    -5.517000000     0.191000000
C    -2.371000000    -6.206000000    -0.146000000
O    -1.993000000    -7.102000000    -1.118000000
C    -3.735000000    -6.082000000     0.191000000
H    -4.557000000    -6.581000000    -0.317000000
C    -4.107000000    -5.210000000     1.195000000
O    -5.499000000    -5.041000000     1.408000000
C    -5.889000000    -3.801000000     1.824000000
C    -5.840000000    -2.627000000     0.998000000
H    -5.570000000    -2.844000000    -0.032000000
C    -6.545000000    -3.717000000     3.066000000
H    -6.613000000    -4.553000000     3.757000000
C    -7.063000000    -2.481000000     3.422000000
H    -7.381000000    -2.426000000     4.460000000
C    -6.970000000    -1.359000000     2.611000000
H    -7.140000000    -0.337000000     2.942000000
C    -6.290000000    -1.413000000     1.400000000
O    -6.302000000    -0.330000000     0.568000000
C    -5.375000000     0.610000000     0.638000000
C    -5.456000000     1.548000000    -0.398000000
H    -6.262000000     1.522000000    -1.127000000
C    -4.561000000     2.590000000    -0.332000000
O    -4.688000000     3.661000000    -1.226000000
C    -4.081000000     4.881000000    -1.335000000
C    -2.960000000     5.094000000    -2.139000000
H    -2.586000000     4.283000000    -2.759000000
C    -4.470000000     5.930000000    -0.413000000
H    -5.255000000     5.723000000     0.310000000
C    -3.927000000     7.169000000    -0.420000000
H    -4.265000000     7.909000000     0.302000000
C    -2.882000000     7.426000000    -1.316000000
H    -2.323000000     8.358000000    -1.334000000
C    -2.458000000     6.419000000    -2.223000000
O    -1.319000000     6.634000000    -3.035000000
C    -0.271000000     5.686000000    -3.105000000
C     0.336000000     5.398000000    -4.306000000
H    -0.068000000     5.833000000    -5.216000000
C     1.499000000     4.578000000    -4.363000000
O     2.056000000     4.257000000    -5.576000000
C     2.918000000     3.159000000    -5.590000000
C     2.395000000     1.878000000    -5.673000000
H     1.313000000     1.854000000    -5.769000000
C     4.275000000     3.345000000    -5.592000000
H     4.665000000     4.342000000    -5.400000000
C     5.169000000     2.270000000    -5.810000000
H     6.241000000     2.449000000    -5.834000000
C     4.613000000     0.978000000    -5.889000000
H     5.233000000     0.088000000    -5.954000000
C     3.234000000     0.765000000    -5.839000000
O     2.730000000    -0.515000000    -5.976000000
C     2.585000000    -1.367000000    -4.900000000
C     1.575000000    -2.325000000    -4.942000000
H     1.074000000    -2.532000000    -5.885000000
C     1.259000000    -3.094000000    -3.825000000
O     0.247000000    -3.986000000    -3.957000000
C     0.277000000    -5.203000000    -3.342000000
C     1.331000000    -6.086000000    -3.609000000
H     2.102000000    -5.779000000    -4.312000000
C     1.262000000    -7.306000000    -3.009000000
H     2.042000000    -8.014000000    -3.278000000
C     0.144000000    -7.738000000    -2.288000000
H     0.055000000    -8.772000000    -1.966000000
C    -0.857000000    -6.808000000    -1.946000000
C    -0.852000000    -5.547000000    -2.522000000
H    -1.631000000    -4.802000000    -2.381000000
C    -2.093000000    -1.327000000    -1.014000000
H    -3.072000000    -1.791000000    -0.924000000
C    -1.358000000    -0.826000000     0.070000000
H    -1.767000000    -0.822000000     1.077000000
C    -0.196000000    -0.103000000    -0.144000000
H     0.401000000     0.308000000     0.674000000
C     0.351000000     0.087000000    -1.385000000
H     1.263000000     0.624000000    -1.632000000
C    -0.351000000    -0.488000000    -2.446000000
H     0.030000000    -0.259000000    -3.438000000
C    -1.567000000    -1.206000000    -2.291000000
C    -2.201000000    -1.871000000    -3.445000000
O    -1.852000000    -1.505000000    -4.584000000
O    -3.084000000    -2.627000000    -3.326000000
O    -5.925000000    -7.326000000    -5.083000000
H    -5.087000000    -7.507000000    -4.658000000
H    -5.916000000    -6.382000000    -5.240000000
O    -4.607000000     1.792000000    -4.255000000
H    -3.758000000     2.174000000    -4.475000000
H    -4.586000000     1.692000000    -3.303000000
O    -1.889000000     3.414000000    -5.664000000
H    -1.349000000     3.794000000    -6.357000000
H    -1.562000000     2.520000000    -5.567000000
O    -1.307000000    -4.400000000    -7.593000000
H    -1.278000000    -4.112000000    -8.506000000
H    -0.702000000    -5.141000000    -7.557000000
O    -8.081000000    -4.472000000    -2.105000000
H    -8.074000000    -4.803000000    -3.003000000
H    -7.166000000    -4.260000000    -1.920000000
O    -3.110000000     3.326000000    -8.443000000
H    -2.186000000     3.574000000    -8.438000000
H    -3.107000000     2.389000000    -8.245000000
O    -5.392000000    -3.591000000    -2.706000000
H    -4.449000000    -3.430000000    -2.705000000
H    -5.628000000    -3.624000000    -3.633000000
O    -6.279000000     2.930000000    -6.274000000
H    -5.664000000     2.406000000    -5.760000000
H    -7.041000000     3.030000000    -5.705000000
O    -5.298000000    -1.272000000    -4.476000000
H    -4.373000000    -1.284000000    -4.229000000
H    -5.321000000    -0.778000000    -5.296000000
O    -3.339000000    -3.823000000    -5.552000000
H    -3.157000000    -3.353000000    -4.738000000
H    -2.535000000    -3.736000000    -6.064000000
O    -0.917000000     0.691000000    -5.659000000
H    -1.368000000     0.016000000    -5.151000000
H     0.007000000     0.442000000    -5.619000000
O    -4.922000000    -0.762000000    -7.963000000
H    -4.164000000    -1.127000000    -7.508000000
H    -4.645000000    -0.699000000    -8.877000000
O    -2.232000000     0.801000000    -8.180000000
H    -1.740000000     1.088000000    -7.411000000
H    -2.576000000    -0.059000000    -7.938000000
O    -7.952000000    -0.708000000    -5.179000000
H    -7.181000000    -0.748000000    -4.613000000
H    -8.184000000     0.221000000    -5.200000000
O    -5.828000000    -4.749000000    -6.249000000
H    -5.946000000    -4.516000000    -7.170000000
H    -4.964000000    -4.404000000    -6.023000000
O     0.368000000    -0.629000000    -8.041000000
H     0.260000000    -1.099000000    -8.868000000
H    -0.514000000    -0.584000000    -7.674000000
O    -2.976000000    -6.846000000    -4.684000000
H    -2.337000000    -7.126000000    -5.341000000
H    -2.561000000    -6.101000000    -4.249000000
O    -2.021000000    -1.733000000    -7.118000000
H    -1.922000000    -2.619000000    -7.466000000
H    -2.017000000    -1.847000000    -6.167000000
O    -7.627000000    -1.412000000    -2.142000000
H    -7.886000000    -2.326000000    -2.256000000
H    -7.049000000    -1.232000000    -2.884000000
