215
-1446.31535
C    -3.533000000     2.620000000     1.431000000
H    -2.740000000     3.363000000     1.475000000
C    -3.471000000     1.575000000     2.332000000
C    -4.448000000     0.576000000     2.233000000
H    -4.320000000    -0.340000000     2.803000000
C    -2.228000000     1.320000000     3.100000000
O    -1.653000000     2.611000000     3.631000000
H    -1.358000000     0.987000000     2.515000000
O    -2.391000000     0.484000000     4.211000000
C    -1.437000000    -0.456000000     4.320000000
C    -1.773000000    -1.696000000     3.847000000
H    -2.794000000    -1.808000000     3.490000000
C    -0.878000000    -2.788000000     3.851000000
O    -1.172000000    -3.910000000     3.072000000
C     0.391000000    -2.539000000     4.374000000
C     1.535000000    -3.468000000     4.216000000
H     2.305000000    -3.208000000     4.946000000
C     2.318000000    -3.359000000     2.935000000
C     3.492000000    -2.532000000     2.773000000
H     3.910000000    -2.046000000     3.651000000
H     1.218000000    -4.495000000     4.411000000
C     0.731000000    -1.262000000     4.867000000
H     1.706000000    -1.028000000     5.284000000
C    -0.147000000    -0.166000000     4.824000000
C     0.228000000     1.235000000     5.276000000
H     1.068000000     1.131000000     5.966000000
H    -0.543000000     1.652000000     5.926000000
C     0.595000000     2.329000000     4.218000000
C     1.952000000     2.501000000     3.863000000
H     2.699000000     1.903000000     4.381000000
C    -0.386000000     2.969000000     3.465000000
C    -0.073000000     3.728000000     2.377000000
H    -0.788000000     4.292000000     1.784000000
C     1.312000000     3.995000000     2.122000000
O     1.510000000     4.743000000     1.020000000
C     1.910000000     4.021000000    -0.164000000
C     1.176000000     4.680000000    -1.401000000
C     1.650000000     4.605000000    -2.695000000
H     2.485000000     3.936000000    -2.887000000
C     0.101000000     5.529000000    -1.136000000
H    -0.266000000     5.725000000    -0.132000000
O     3.374000000     3.850000000    -0.427000000
H     1.529000000     2.990000000    -0.135000000
C     2.303000000     3.301000000     2.798000000
C     3.773000000     3.500000000     2.354000000
H     4.470000000     3.483000000     3.194000000
H     3.925000000     4.498000000     1.938000000
C     4.141000000     2.471000000     1.337000000
C     4.545000000     1.198000000     1.728000000
H     4.536000000     1.041000000     2.804000000
C     3.948000000     2.713000000     0.005000000
C     4.358000000     1.816000000    -0.928000000
H     4.258000000     2.059000000    -1.982000000
C     4.559000000     0.528000000    -0.528000000
O     4.528000000    -0.391000000    -1.523000000
C     3.611000000    -1.464000000    -1.513000000
C     3.061000000    -1.660000000    -2.882000000
C     2.665000000    -0.598000000    -3.673000000
H     2.754000000     0.407000000    -3.269000000
C     2.860000000    -2.944000000    -3.356000000
H     3.131000000    -3.754000000    -2.684000000
O     4.047000000    -2.709000000    -0.835000000
H     2.717000000    -1.183000000    -0.938000000
C     4.699000000     0.192000000     0.838000000
C     5.113000000    -1.282000000     1.259000000
H     5.542000000    -1.101000000     2.247000000
H     5.911000000    -1.782000000     0.706000000
C     3.983000000    -2.259000000     1.467000000
C     3.474000000    -2.964000000     0.396000000
C     2.472000000    -3.867000000     0.547000000
H     2.118000000    -4.524000000    -0.243000000
C     1.788000000    -3.992000000     1.810000000
O     0.585000000    -4.670000000     1.895000000
C    -0.580000000    -3.976000000     1.770000000
H    -0.364000000    -2.947000000     1.447000000
C    -1.660000000    -4.503000000     0.770000000
C    -2.986000000    -4.160000000     0.864000000
H    -3.323000000    -3.544000000     1.693000000
C    -1.225000000    -5.181000000    -0.336000000
H    -0.147000000    -5.316000000    -0.356000000
C    -2.098000000    -5.782000000    -1.283000000
O    -1.692000000    -6.374000000    -2.505000000
C    -3.433000000    -5.501000000    -1.111000000
H    -4.096000000    -5.867000000    -1.891000000
C    -3.847000000    -4.668000000    -0.099000000
O    -5.178000000    -4.231000000    -0.125000000
C    -5.730000000    -3.540000000     0.862000000
C    -5.818000000    -2.190000000     0.733000000
H    -5.590000000    -1.686000000    -0.203000000
C    -6.250000000    -4.224000000     1.946000000
H    -6.142000000    -5.300000000     2.063000000
C    -6.753000000    -3.488000000     3.018000000
H    -7.033000000    -4.000000000     3.935000000
C    -6.781000000    -2.050000000     2.960000000
H    -7.228000000    -1.460000000     3.756000000
C    -6.360000000    -1.446000000     1.777000000
O    -6.601000000    -0.132000000     1.545000000
C    -5.538000000     0.715000000     1.399000000
C    -5.675000000     1.795000000     0.518000000
H    -6.595000000     1.842000000    -0.059000000
C    -4.647000000     2.736000000     0.540000000
O    -4.753000000     3.879000000    -0.177000000
C    -4.166000000     5.148000000    -0.069000000
C    -3.258000000     5.520000000    -1.019000000
H    -2.880000000     4.716000000    -1.645000000
C    -4.534000000     6.048000000     0.963000000
H    -5.402000000     5.855000000     1.588000000
C    -3.821000000     7.205000000     1.061000000
H    -4.073000000     7.916000000     1.844000000
C    -2.843000000     7.569000000     0.083000000
H    -2.198000000     8.431000000     0.235000000
C    -2.558000000     6.684000000    -0.913000000
O    -1.558000000     7.065000000    -1.823000000
C    -0.531000000     6.221000000    -2.115000000
C    -0.015000000     6.176000000    -3.430000000
H    -0.466000000     6.833000000    -4.170000000
C     1.061000000     5.310000000    -3.754000000
O     1.344000000     4.977000000    -5.062000000
C     2.008000000     3.884000000    -5.489000000
C     1.441000000     2.620000000    -5.464000000
H     0.384000000     2.588000000    -5.212000000
C     3.341000000     4.005000000    -5.775000000
H     3.807000000     4.974000000    -5.615000000
C     4.098000000     2.863000000    -6.129000000
H     5.100000000     3.028000000    -6.516000000
C     3.526000000     1.579000000    -6.165000000
H     4.095000000     0.708000000    -6.480000000
C     2.157000000     1.448000000    -5.742000000
O     1.612000000     0.226000000    -5.670000000
C     2.091000000    -0.799000000    -4.924000000
C     1.871000000    -2.064000000    -5.385000000
H     1.408000000    -2.189000000    -6.360000000
C     2.183000000    -3.101000000    -4.541000000
O     1.860000000    -4.387000000    -4.977000000
C     1.415000000    -5.441000000    -4.161000000
C     2.215000000    -6.517000000    -3.843000000
H     3.226000000    -6.567000000    -4.237000000
C     1.676000000    -7.520000000    -3.134000000
H     2.265000000    -8.410000000    -2.928000000
C     0.344000000    -7.557000000    -2.707000000
H     0.050000000    -8.480000000    -2.215000000
C    -0.347000000    -6.404000000    -2.924000000
C     0.109000000    -5.349000000    -3.650000000
H    -0.595000000    -4.557000000    -3.893000000
C    -1.584000000    -0.286000000    -0.131000000
H    -2.455000000    -0.754000000     0.321000000
C    -0.288000000    -0.329000000     0.410000000
H    -0.070000000    -0.731000000     1.396000000
C     0.748000000     0.385000000    -0.181000000
H     1.751000000     0.404000000     0.232000000
C     0.601000000     0.976000000    -1.443000000
H     1.464000000     1.525000000    -1.812000000
C    -0.650000000     1.010000000    -1.995000000
H    -0.761000000     1.521000000    -2.948000000
C    -1.743000000     0.324000000    -1.384000000
C    -3.047000000     0.370000000    -2.069000000
O    -3.216000000     1.054000000    -3.136000000
O    -3.984000000    -0.373000000    -1.746000000
O    -6.991000000     0.410000000    -7.658000000
H    -7.077000000     0.917000000    -8.465000000
H    -6.155000000    -0.046000000    -7.749000000
O    -8.484000000    -1.264000000    -5.801000000
H    -8.095000000    -0.512000000    -6.249000000
H    -9.114000000    -1.617000000    -6.429000000
O    -4.100000000     3.668000000    -3.743000000
H    -3.625000000     3.814000000    -4.561000000
H    -3.904000000     2.760000000    -3.511000000
O    -2.846000000     3.673000000    -5.933000000
H    -2.129000000     4.082000000    -6.417000000
H    -2.814000000     2.752000000    -6.191000000
O    -4.793000000    -2.534000000    -3.089000000
H    -5.099000000    -3.138000000    -2.411000000
H    -4.292000000    -1.873000000    -2.611000000
O    -8.743000000    -1.770000000    -2.705000000
H    -8.555000000    -1.544000000    -3.616000000
H    -8.053000000    -1.335000000    -2.204000000
O    -6.757000000     4.266000000    -2.275000000
H    -6.838000000     3.634000000    -1.560000000
H    -5.854000000     4.169000000    -2.577000000
O    -6.606000000     0.091000000    -1.901000000
H    -6.886000000     0.736000000    -2.550000000
H    -5.660000000     0.220000000    -1.829000000
O    -5.489000000     5.504000000    -6.529000000
H    -4.971000000     5.535000000    -5.724000000
H    -6.335000000     5.876000000    -6.283000000
O    -4.954000000    -3.212000000    -5.755000000
H    -4.889000000    -2.665000000    -4.971000000
H    -5.876000000    -3.466000000    -5.794000000
O    -3.902000000     6.574000000    -4.761000000
H    -3.296000000     7.316000000    -4.749000000
H    -3.362000000     5.820000000    -4.524000000
O    -3.120000000     1.053000000    -6.958000000
H    -2.432000000     0.890000000    -6.313000000
H    -3.810000000     0.429000000    -6.736000000
O    -1.381000000     0.267000000    -5.030000000
H    -2.034000000     0.607000000    -4.419000000
H    -1.007000000    -0.492000000    -4.583000000
O    -4.806000000    -1.276000000    -7.863000000
H    -3.914000000    -1.407000000    -8.183000000
H    -4.842000000    -1.770000000    -7.044000000
O    -5.475000000     2.995000000    -7.957000000
H    -4.756000000     2.453000000    -7.630000000
H    -5.578000000     3.680000000    -7.297000000
O    -7.321000000     1.741000000    -3.866000000
H    -6.574000000     1.682000000    -4.461000000
H    -7.417000000     2.677000000    -3.694000000
O    -0.011000000     0.630000000    -7.936000000
H    -0.790000000     0.082000000    -7.836000000
H     0.374000000     0.662000000    -7.060000000
O    -9.498000000    -1.139000000     0.407000000
H    -9.768000000    -0.865000000     1.284000000
H    -8.624000000    -0.763000000     0.297000000
O    -4.949000000     0.169000000    -4.788000000
H    -4.406000000     0.388000000    -4.031000000
H    -5.645000000    -0.383000000    -4.433000000
