215
-1458.53807
C     3.200000000    -0.526000000    -3.778000000
H     3.045000000    -1.588000000    -3.952000000
C     3.545000000    -0.068000000    -2.480000000
C     3.836000000     1.277000000    -2.401000000
H     4.266000000     1.685000000    -1.489000000
C     3.713000000    -0.976000000    -1.338000000
O     3.826000000    -2.396000000    -1.673000000
H     2.812000000    -0.885000000    -0.714000000
O     4.834000000    -0.608000000    -0.421000000
C     4.542000000    -0.623000000     0.914000000
C     4.282000000     0.637000000     1.455000000
H     4.203000000     1.524000000     0.832000000
C     3.708000000     0.710000000     2.701000000
O     3.393000000     1.921000000     3.236000000
C     3.407000000    -0.442000000     3.435000000
C     2.756000000    -0.353000000     4.769000000
H     3.057000000    -1.178000000     5.418000000
C     1.245000000    -0.202000000     4.655000000
C     0.413000000    -1.316000000     4.912000000
H     0.841000000    -2.226000000     5.327000000
H     3.107000000     0.491000000     5.366000000
C     3.613000000    -1.704000000     2.924000000
H     3.332000000    -2.628000000     3.424000000
C     4.216000000    -1.825000000     1.690000000
C     4.390000000    -3.167000000     1.107000000
H     4.602000000    -3.854000000     1.930000000
H     5.248000000    -3.168000000     0.432000000
C     3.146000000    -3.696000000     0.246000000
C     2.201000000    -4.498000000     0.932000000
H     2.399000000    -4.676000000     1.986000000
C     2.982000000    -3.255000000    -1.092000000
C     1.872000000    -3.788000000    -1.769000000
H     1.835000000    -3.615000000    -2.842000000
C     0.901000000    -4.573000000    -1.094000000
O    -0.278000000    -4.872000000    -1.817000000
C    -1.370000000    -3.912000000    -1.587000000
C    -2.110000000    -3.451000000    -2.827000000
C    -3.164000000    -2.555000000    -2.710000000
H    -3.719000000    -2.440000000    -1.783000000
C    -1.615000000    -3.797000000    -4.076000000
H    -0.785000000    -4.485000000    -4.219000000
O    -2.249000000    -4.516000000    -0.601000000
H    -0.925000000    -3.019000000    -1.124000000
C     1.106000000    -4.978000000     0.221000000
C    -0.020000000    -5.655000000     1.016000000
H     0.345000000    -6.179000000     1.902000000
H    -0.549000000    -6.442000000     0.475000000
C    -1.040000000    -4.655000000     1.547000000
C    -0.897000000    -4.063000000     2.803000000
H    -0.031000000    -4.485000000     3.306000000
C    -2.069000000    -4.170000000     0.722000000
C    -2.956000000    -3.208000000     1.155000000
H    -3.771000000    -2.850000000     0.531000000
C    -2.872000000    -2.682000000     2.415000000
O    -3.678000000    -1.625000000     2.738000000
C    -3.164000000    -0.229000000     2.640000000
C    -4.237000000     0.693000000     2.034000000
C    -5.188000000     0.284000000     1.161000000
H    -5.314000000    -0.788000000     1.034000000
C    -4.097000000     2.069000000     2.428000000
H    -3.330000000     2.450000000     3.097000000
O    -2.813000000     0.252000000     3.940000000
H    -2.261000000    -0.202000000     2.011000000
C    -1.812000000    -3.100000000     3.276000000
C    -1.761000000    -2.480000000     4.737000000
H    -1.375000000    -3.292000000     5.358000000
H    -2.763000000    -2.340000000     5.148000000
C    -0.940000000    -1.213000000     4.720000000
C    -1.531000000     0.067000000     4.389000000
C    -0.714000000     1.180000000     4.429000000
H    -1.119000000     2.172000000     4.244000000
C     0.641000000     1.036000000     4.535000000
O     1.392000000     2.164000000     4.401000000
C     2.034000000     2.398000000     3.120000000
H     1.551000000     1.807000000     2.328000000
C     2.002000000     3.829000000     2.625000000
C     3.160000000     4.520000000     2.259000000
H     4.150000000     4.230000000     2.601000000
C     0.818000000     4.522000000     2.488000000
H    -0.072000000     4.086000000     2.935000000
C     0.656000000     5.528000000     1.535000000
O    -0.571000000     6.148000000     1.324000000
C     1.774000000     6.051000000     1.005000000
H     1.729000000     6.843000000     0.262000000
C     3.075000000     5.642000000     1.421000000
O     4.196000000     6.076000000     0.761000000
C     4.731000000     5.298000000    -0.180000000
C     3.944000000     4.831000000    -1.261000000
H     2.908000000     5.119000000    -1.417000000
C     6.067000000     4.840000000    -0.030000000
H     6.631000000     5.237000000     0.810000000
C     6.654000000     4.265000000    -1.162000000
H     7.706000000     3.990000000    -1.153000000
C     5.886000000     3.876000000    -2.222000000
H     6.369000000     3.409000000    -3.076000000
C     4.549000000     4.097000000    -2.272000000
O     3.795000000     3.526000000    -3.265000000
C     3.678000000     2.172000000    -3.407000000
C     3.174000000     1.716000000    -4.643000000
H     2.935000000     2.478000000    -5.381000000
C     2.973000000     0.340000000    -4.832000000
O     2.602000000    -0.179000000    -6.077000000
C     2.036000000    -1.360000000    -6.385000000
C     0.677000000    -1.631000000    -6.005000000
H     0.155000000    -1.024000000    -5.270000000
C     2.757000000    -2.305000000    -7.145000000
H     3.756000000    -2.062000000    -7.500000000
C     2.121000000    -3.526000000    -7.572000000
H     2.631000000    -4.227000000    -8.228000000
C     0.739000000    -3.710000000    -7.243000000
H     0.297000000    -4.591000000    -7.699000000
C     0.019000000    -2.774000000    -6.510000000
O    -1.315000000    -3.045000000    -6.373000000
C    -1.980000000    -3.003000000    -5.131000000
C    -3.029000000    -2.096000000    -5.036000000
H    -3.306000000    -1.660000000    -5.992000000
C    -3.679000000    -1.899000000    -3.800000000
O    -4.730000000    -1.051000000    -3.781000000
C    -5.689000000    -1.198000000    -2.783000000
C    -5.849000000    -0.130000000    -1.940000000
H    -5.353000000     0.834000000    -2.026000000
C    -6.553000000    -2.269000000    -2.767000000
H    -6.480000000    -2.998000000    -3.570000000
C    -7.490000000    -2.431000000    -1.748000000
H    -8.126000000    -3.312000000    -1.722000000
C    -7.696000000    -1.333000000    -0.928000000
H    -8.378000000    -1.426000000    -0.087000000
C    -6.888000000    -0.214000000    -0.990000000
O    -7.106000000     0.860000000    -0.123000000
C    -6.133000000     1.231000000     0.694000000
C    -6.104000000     2.559000000     1.135000000
H    -6.730000000     3.378000000     0.792000000
C    -5.066000000     2.992000000     1.961000000
O    -4.983000000     4.360000000     2.140000000
C    -3.842000000     5.002000000     2.518000000
C    -3.794000000     5.347000000     3.854000000
H    -4.628000000     5.109000000     4.509000000
C    -2.698000000     6.045000000     4.336000000
H    -2.733000000     6.414000000     5.357000000
C    -1.609000000     6.326000000     3.491000000
H    -0.690000000     6.849000000     3.743000000
C    -1.644000000     5.857000000     2.190000000
C    -2.823000000     5.305000000     1.661000000
H    -2.914000000     5.001000000     0.621000000
C    -1.226000000     0.358000000    -1.788000000
H    -1.297000000     0.122000000    -2.847000000
C    -0.253000000    -0.324000000    -1.116000000
H     0.431000000    -1.070000000    -1.513000000
C    -0.016000000    -0.067000000     0.189000000
H     0.810000000    -0.585000000     0.669000000
C    -0.617000000     1.048000000     0.770000000
H    -0.412000000     1.270000000     1.814000000
C    -1.489000000     1.829000000     0.037000000
H    -1.918000000     2.714000000     0.500000000
C    -1.888000000     1.453000000    -1.240000000
C    -2.837000000     2.329000000    -2.030000000
O    -3.309000000     3.298000000    -1.511000000
O    -2.964000000     2.124000000    -3.239000000
O    -6.171000000     3.244000000    -2.059000000
H    -5.505000000     3.654000000    -1.507000000
H    -5.685000000     2.908000000    -2.812000000
O    -1.096000000     7.230000000    -1.725000000
H    -1.082000000     6.458000000    -2.291000000
H    -1.399000000     6.902000000    -0.879000000
O    -6.459000000     5.231000000    -5.567000000
H    -6.878000000     4.543000000    -6.085000000
H    -6.624000000     6.035000000    -6.058000000
O    -1.032000000     7.100000000    -5.082000000
H    -1.223000000     6.622000000    -4.275000000
H    -0.217000000     7.568000000    -4.896000000
O    -4.401000000     6.400000000    -3.931000000
H    -3.560000000     6.121000000    -4.293000000
H    -5.053000000     5.996000000    -4.502000000
O    -8.308000000     5.353000000    -3.222000000
H    -8.098000000     5.386000000    -2.288000000
H    -7.463000000     5.223000000    -3.653000000
O    -7.265000000     0.679000000    -5.435000000
H    -6.389000000     1.010000000    -5.238000000
H    -7.114000000    -0.087000000    -5.988000000
O    -8.640000000     3.229000000    -5.193000000
H    -8.392000000     3.651000000    -4.370000000
H    -8.137000000     2.414000000    -5.204000000
O    -0.452000000     4.805000000    -7.020000000
H     0.497000000     4.795000000    -6.891000000
H    -0.796000000     5.218000000    -6.228000000
O    -1.492000000     1.294000000    -5.176000000
H    -2.236000000     0.873000000    -5.607000000
H    -1.867000000     1.703000000    -4.396000000
O    -4.245000000     5.780000000    -1.242000000
H    -4.234000000     6.206000000    -2.099000000
H    -3.640000000     5.044000000    -1.332000000
O    -1.595000000     5.040000000    -3.301000000
H    -2.395000000     4.521000000    -3.381000000
H    -0.891000000     4.433000000    -3.530000000
O    -7.641000000     5.826000000     2.090000000
H    -6.759000000     5.621000000     1.780000000
H    -7.867000000     5.097000000     2.667000000
O    -3.476000000     9.161000000    -4.542000000
H    -2.671000000     9.090000000    -4.030000000
H    -4.023000000     8.440000000    -4.230000000
O     0.060000000     3.160000000    -4.129000000
H    -0.346000000     2.518000000    -4.711000000
H     0.721000000     2.661000000    -3.647000000
O    -9.412000000     2.960000000    -1.511000000
H    -8.549000000     2.763000000    -1.874000000
H    -9.328000000     3.847000000    -1.161000000
O    -5.275000000     2.331000000    -4.525000000
H    -4.446000000     2.152000000    -4.081000000
H    -5.166000000     3.209000000    -4.891000000
O    -2.191000000     2.394000000    -8.042000000
H    -3.078000000     2.713000000    -7.875000000
H    -1.648000000     2.849000000    -7.398000000
O    -4.663000000     8.185000000     0.459000000
H    -3.817000000     8.610000000     0.602000000
H    -4.441000000     7.311000000     0.138000000
