215
-1446.27181
C    -4.074000000     2.463000000     2.194000000
H    -3.507000000     3.390000000     2.239000000
C    -3.673000000     1.212000000     2.823000000
C    -4.564000000     0.139000000     2.697000000
H    -4.312000000    -0.794000000     3.193000000
C    -2.327000000     1.069000000     3.450000000
O    -1.758000000     2.275000000     3.891000000
H    -1.717000000     0.754000000     2.591000000
O    -2.212000000    -0.004000000     4.435000000
C    -1.151000000    -0.775000000     4.328000000
C    -1.227000000    -2.030000000     3.720000000
H    -2.172000000    -2.315000000     3.264000000
C    -0.144000000    -2.860000000     3.576000000
O    -0.371000000    -4.000000000     2.764000000
C     1.114000000    -2.503000000     4.023000000
C     2.322000000    -3.406000000     3.769000000
H     3.046000000    -3.476000000     4.584000000
C     2.886000000    -3.167000000     2.366000000
C     3.926000000    -2.182000000     2.240000000
H     4.242000000    -1.714000000     3.168000000
H     2.073000000    -4.468000000     3.823000000
C     1.294000000    -1.245000000     4.515000000
H     2.312000000    -0.979000000     4.787000000
C     0.164000000    -0.357000000     4.709000000
C     0.368000000     0.986000000     5.439000000
H     1.318000000     0.815000000     5.949000000
H    -0.429000000     1.228000000     6.145000000
C     0.587000000     2.079000000     4.463000000
C     1.912000000     2.287000000     4.070000000
H     2.689000000     1.625000000     4.443000000
C    -0.462000000     2.664000000     3.759000000
C    -0.175000000     3.726000000     2.913000000
H    -1.010000000     4.236000000     2.439000000
C     1.134000000     3.979000000     2.510000000
O     1.373000000     4.719000000     1.314000000
C     1.391000000     3.899000000     0.185000000
C     0.420000000     4.494000000    -0.885000000
C     0.657000000     4.187000000    -2.176000000
H     1.549000000     3.602000000    -2.388000000
C    -0.677000000     5.334000000    -0.633000000
H    -0.713000000     5.762000000     0.366000000
O     2.801000000     3.831000000    -0.358000000
H     1.076000000     2.880000000     0.455000000
C     2.169000000     3.205000000     2.996000000
C     3.586000000     3.334000000     2.540000000
H     4.337000000     3.078000000     3.289000000
H     3.967000000     4.329000000     2.299000000
C     3.978000000     2.446000000     1.321000000
C     4.761000000     1.311000000     1.580000000
H     5.030000000     1.109000000     2.614000000
C     3.608000000     2.759000000     0.007000000
C     4.071000000     1.971000000    -1.074000000
H     3.801000000     2.257000000    -2.087000000
C     4.823000000     0.774000000    -0.809000000
O     5.011000000    -0.159000000    -1.777000000
C     3.974000000    -1.217000000    -1.894000000
C     3.493000000    -1.254000000    -3.322000000
C     3.681000000    -0.222000000    -4.248000000
H     4.167000000     0.679000000    -3.881000000
C     2.651000000    -2.359000000    -3.673000000
H     2.483000000    -3.222000000    -3.034000000
O     4.510000000    -2.413000000    -1.330000000
H     3.099000000    -1.036000000    -1.252000000
C     5.151000000     0.449000000     0.509000000
C     5.630000000    -0.939000000     0.857000000
H     6.293000000    -0.881000000     1.722000000
H     6.317000000    -1.315000000     0.095000000
C     4.583000000    -2.021000000     0.998000000
C     4.161000000    -2.832000000    -0.049000000
C     3.097000000    -3.742000000     0.014000000
H     2.667000000    -4.157000000    -0.894000000
C     2.477000000    -3.836000000     1.250000000
O     1.363000000    -4.639000000     1.188000000
C     0.070000000    -3.991000000     1.392000000
H     0.146000000    -2.923000000     1.138000000
C    -1.086000000    -4.638000000     0.548000000
C    -2.370000000    -4.240000000     0.703000000
H    -2.788000000    -3.561000000     1.441000000
C    -0.689000000    -5.386000000    -0.570000000
H     0.356000000    -5.603000000    -0.779000000
C    -1.640000000    -5.806000000    -1.502000000
O    -1.214000000    -6.532000000    -2.602000000
C    -2.974000000    -5.378000000    -1.386000000
H    -3.648000000    -5.677000000    -2.184000000
C    -3.324000000    -4.637000000    -0.291000000
O    -4.576000000    -4.104000000    -0.361000000
C    -5.375000000    -3.757000000     0.720000000
C    -5.567000000    -2.391000000     0.951000000
H    -5.250000000    -1.677000000     0.195000000
C    -5.895000000    -4.711000000     1.589000000
H    -5.682000000    -5.752000000     1.361000000
C    -6.671000000    -4.276000000     2.663000000
H    -7.080000000    -5.104000000     3.236000000
C    -7.014000000    -2.919000000     2.784000000
H    -7.721000000    -2.559000000     3.527000000
C    -6.408000000    -1.963000000     1.989000000
O    -6.785000000    -0.621000000     2.018000000
C    -5.836000000     0.328000000     2.094000000
C    -6.179000000     1.522000000     1.474000000
H    -7.219000000     1.567000000     1.159000000
C    -5.325000000     2.581000000     1.518000000
O    -5.822000000     3.820000000     1.035000000
C    -5.025000000     4.943000000     0.895000000
C    -4.248000000     5.121000000    -0.260000000
H    -4.210000000     4.391000000    -1.065000000
C    -5.032000000     5.817000000     1.976000000
H    -5.656000000     5.558000000     2.828000000
C    -4.288000000     7.006000000     1.899000000
H    -4.325000000     7.719000000     2.719000000
C    -3.530000000     7.261000000     0.725000000
H    -2.887000000     8.130000000     0.616000000
C    -3.504000000     6.324000000    -0.321000000
O    -2.626000000     6.518000000    -1.393000000
C    -1.549000000     5.680000000    -1.656000000
C    -1.428000000     5.166000000    -2.923000000
H    -2.005000000     5.415000000    -3.810000000
C    -0.253000000     4.532000000    -3.188000000
O    -0.068000000     3.912000000    -4.424000000
C     1.126000000     3.710000000    -5.056000000
C     1.513000000     2.384000000    -5.332000000
H     0.937000000     1.547000000    -4.946000000
C     2.054000000     4.725000000    -5.310000000
H     1.864000000     5.747000000    -4.993000000
C     3.261000000     4.399000000    -5.988000000
H     4.039000000     5.155000000    -6.060000000
C     3.541000000     3.052000000    -6.397000000
H     4.455000000     2.645000000    -6.823000000
C     2.696000000     2.032000000    -5.998000000
O     3.013000000     0.787000000    -6.305000000
C     2.942000000    -0.248000000    -5.455000000
C     2.151000000    -1.368000000    -5.790000000
H     1.681000000    -1.326000000    -6.769000000
C     2.031000000    -2.426000000    -4.898000000
O     1.334000000    -3.509000000    -5.313000000
C     1.257000000    -4.697000000    -4.558000000
C     2.202000000    -5.626000000    -4.675000000
H     3.122000000    -5.414000000    -5.213000000
C     2.066000000    -6.928000000    -4.131000000
H     2.895000000    -7.628000000    -4.194000000
C     0.896000000    -7.241000000    -3.360000000
H     0.896000000    -8.233000000    -2.917000000
C    -0.100000000    -6.263000000    -3.336000000
C     0.089000000    -4.997000000    -3.913000000
H    -0.650000000    -4.199000000    -3.899000000
C    -1.795000000    -1.296000000    -1.481000000
H    -2.693000000    -1.891000000    -1.625000000
C    -1.500000000    -0.824000000    -0.188000000
H    -2.048000000    -1.119000000     0.703000000
C    -0.440000000    -0.028000000     0.023000000
H    -0.115000000     0.219000000     1.010000000
C     0.430000000     0.254000000    -1.035000000
H     1.345000000     0.835000000    -0.952000000
C     0.020000000     0.045000000    -2.351000000
H     0.546000000     0.524000000    -3.173000000
C    -1.078000000    -0.790000000    -2.584000000
C    -1.666000000    -0.911000000    -3.973000000
O    -1.241000000    -0.318000000    -4.985000000
O    -2.661000000    -1.609000000    -4.065000000
O    -4.243000000    -3.949000000    -4.084000000
H    -4.070000000    -4.730000000    -4.609000000
H    -3.487000000    -3.384000000    -4.238000000
O    -2.508000000    -0.579000000    -8.868000000
H    -3.024000000    -1.179000000    -9.406000000
H    -2.781000000     0.293000000    -9.151000000
O    -2.228000000     1.978000000    -4.312000000
H    -1.533000000     2.636000000    -4.287000000
H    -1.825000000     1.221000000    -4.736000000
O    -3.911000000    -5.214000000    -7.720000000
H    -3.815000000    -4.323000000    -7.383000000
H    -3.121000000    -5.667000000    -7.428000000
O    -7.182000000    -0.318000000    -1.393000000
H    -7.030000000     0.606000000    -1.591000000
H    -6.532000000    -0.786000000    -1.916000000
O    -6.401000000     1.808000000    -3.383000000
H    -5.895000000     2.390000000    -3.952000000
H    -5.816000000     1.069000000    -3.217000000
O    -0.824000000    -4.816000000    -7.382000000
H    -0.955000000    -5.563000000    -6.797000000
H    -1.422000000    -4.146000000    -7.052000000
O    -2.657000000    -2.672000000    -6.678000000
H    -2.595000000    -2.231000000    -5.830000000
H    -2.648000000    -1.961000000    -7.319000000
O    -4.311000000     3.254000000    -5.102000000
H    -3.645000000     2.632000000    -4.809000000
H    -4.374000000     3.110000000    -6.047000000
O    -4.759000000     0.547000000    -6.714000000
H    -5.174000000     0.102000000    -5.975000000
H    -4.027000000    -0.021000000    -6.955000000
O    -6.478000000    -3.136000000    -2.543000000
H    -6.083000000    -3.299000000    -1.686000000
H    -5.804000000    -3.398000000    -3.170000000
O    -3.999000000     2.919000000    -7.930000000
H    -4.481000000     2.096000000    -8.009000000
H    -3.490000000     2.977000000    -8.738000000
O    -6.851000000    -1.309000000    -5.701000000
H    -6.974000000    -1.051000000    -4.787000000
H    -7.739000000    -1.424000000    -6.039000000
O    -4.504000000    -0.082000000    -3.274000000
H    -3.962000000    -0.846000000    -3.470000000
H    -3.877000000     0.631000000    -3.151000000
O    -0.334000000     3.600000000    -8.047000000
H    -0.551000000     2.801000000    -7.566000000
H     0.579000000     3.480000000    -8.309000000
O    -0.534000000     0.769000000    -7.303000000
H    -0.772000000     0.275000000    -6.519000000
H    -1.073000000     0.390000000    -7.998000000
O     1.405000000     1.254000000    -8.946000000
H     2.139000000     1.435000000    -8.358000000
H     0.711000000     0.934000000    -8.370000000
O    -2.446000000    -6.533000000    -5.603000000
H    -2.912000000    -7.368000000    -5.574000000
H    -1.730000000    -6.636000000    -4.975000000
O    -6.867000000    -4.479000000    -6.213000000
H    -7.237000000    -3.802000000    -5.646000000
H    -6.050000000    -4.100000000    -6.536000000
