215
-1446.30714
C    -4.089000000     2.348000000     1.835000000
H    -3.404000000     3.180000000     1.975000000
C    -3.736000000     1.140000000     2.372000000
C    -4.523000000     0.036000000     2.149000000
H    -4.173000000    -0.942000000     2.470000000
C    -2.449000000     1.047000000     3.252000000
O    -2.113000000     2.265000000     3.909000000
H    -1.625000000     0.749000000     2.588000000
O    -2.536000000    -0.054000000     4.220000000
C    -1.506000000    -0.991000000     4.340000000
C    -1.667000000    -2.203000000     3.702000000
H    -2.628000000    -2.559000000     3.341000000
C    -0.550000000    -3.080000000     3.573000000
O    -0.756000000    -4.203000000     2.839000000
C     0.697000000    -2.662000000     4.084000000
C     1.948000000    -3.463000000     3.910000000
H     2.742000000    -3.308000000     4.644000000
C     2.627000000    -3.170000000     2.593000000
C     3.681000000    -2.259000000     2.510000000
H     3.981000000    -1.587000000     3.310000000
H     1.813000000    -4.545000000     3.968000000
C     0.775000000    -1.424000000     4.750000000
H     1.732000000    -1.037000000     5.091000000
C    -0.326000000    -0.585000000     4.887000000
C    -0.154000000     0.767000000     5.429000000
H     0.540000000     0.685000000     6.268000000
H    -1.032000000     1.058000000     6.009000000
C     0.203000000     1.896000000     4.410000000
C     1.513000000     2.261000000     4.193000000
H     2.384000000     1.808000000     4.659000000
C    -0.753000000     2.662000000     3.808000000
C    -0.423000000     3.729000000     2.902000000
H    -1.204000000     4.338000000     2.453000000
C     0.901000000     3.880000000     2.564000000
O     1.197000000     4.732000000     1.532000000
C     1.537000000     4.091000000     0.300000000
C     0.807000000     4.635000000    -0.942000000
C     1.082000000     4.219000000    -2.273000000
H     2.008000000     3.722000000    -2.550000000
C    -0.424000000     5.337000000    -0.713000000
H    -0.803000000     5.568000000     0.279000000
O     2.948000000     4.073000000     0.107000000
H     1.265000000     3.027000000     0.363000000
C     1.872000000     3.174000000     3.210000000
C     3.339000000     3.246000000     2.915000000
H     3.953000000     3.140000000     3.813000000
H     3.512000000     4.312000000     2.754000000
C     3.777000000     2.456000000     1.717000000
C     4.417000000     1.251000000     1.943000000
H     4.610000000     0.977000000     2.977000000
C     3.614000000     2.916000000     0.391000000
C     4.021000000     2.099000000    -0.692000000
H     3.898000000     2.396000000    -1.731000000
C     4.623000000     0.918000000    -0.397000000
O     4.757000000     0.045000000    -1.404000000
C     3.674000000    -0.865000000    -1.605000000
C     3.260000000    -1.005000000    -3.103000000
C     3.692000000    -0.093000000    -4.069000000
H     4.357000000     0.713000000    -3.770000000
C     2.231000000    -1.824000000    -3.499000000
H     1.889000000    -2.582000000    -2.799000000
O     4.001000000    -2.218000000    -1.147000000
H     2.823000000    -0.423000000    -1.067000000
C     4.796000000     0.405000000     0.900000000
C     5.297000000    -0.968000000     1.239000000
H     5.886000000    -0.990000000     2.159000000
H     5.940000000    -1.308000000     0.424000000
C     4.175000000    -1.921000000     1.291000000
C     3.643000000    -2.517000000     0.166000000
C     2.760000000    -3.530000000     0.282000000
H     2.447000000    -4.064000000    -0.611000000
C     2.168000000    -3.867000000     1.528000000
O     1.127000000    -4.723000000     1.605000000
C    -0.235000000    -4.199000000     1.495000000
H    -0.281000000    -3.160000000     1.136000000
C    -1.147000000    -4.969000000     0.547000000
C    -2.493000000    -4.827000000     0.697000000
H    -3.023000000    -4.422000000     1.555000000
C    -0.669000000    -5.502000000    -0.638000000
H     0.390000000    -5.495000000    -0.881000000
C    -1.471000000    -6.044000000    -1.582000000
O    -0.928000000    -6.607000000    -2.768000000
C    -2.850000000    -5.930000000    -1.388000000
H    -3.557000000    -6.357000000    -2.094000000
C    -3.351000000    -5.359000000    -0.247000000
O    -4.777000000    -5.314000000    -0.046000000
C    -5.406000000    -4.512000000     0.937000000
C    -5.578000000    -3.151000000     0.616000000
H    -5.148000000    -2.745000000    -0.296000000
C    -5.730000000    -5.055000000     2.129000000
H    -5.536000000    -6.110000000     2.308000000
C    -6.332000000    -4.176000000     3.109000000
H    -6.536000000    -4.458000000     4.139000000
C    -6.421000000    -2.789000000     2.869000000
H    -6.880000000    -2.160000000     3.627000000
C    -6.165000000    -2.294000000     1.588000000
O    -6.444000000    -0.990000000     1.163000000
C    -5.665000000     0.088000000     1.358000000
C    -6.112000000     1.390000000     0.950000000
H    -7.082000000     1.530000000     0.479000000
C    -5.305000000     2.487000000     1.125000000
O    -5.793000000     3.755000000     0.711000000
C    -4.973000000     4.895000000     0.690000000
C    -4.278000000     5.192000000    -0.509000000
H    -4.335000000     4.494000000    -1.340000000
C    -4.635000000     5.544000000     1.879000000
H    -5.127000000     5.296000000     2.816000000
C    -3.601000000     6.496000000     1.908000000
H    -3.303000000     7.010000000     2.818000000
C    -2.998000000     6.822000000     0.748000000
H    -2.198000000     7.550000000     0.860000000
C    -3.198000000     6.077000000    -0.436000000
O    -2.429000000     6.198000000    -1.584000000
C    -1.228000000     5.613000000    -1.799000000
C    -0.828000000     5.408000000    -3.097000000
H    -1.469000000     5.593000000    -3.956000000
C     0.338000000     4.699000000    -3.338000000
O     0.612000000     4.370000000    -4.668000000
C     1.847000000     4.008000000    -5.108000000
C     2.080000000     2.665000000    -5.430000000
H     1.380000000     1.859000000    -5.224000000
C     2.792000000     4.990000000    -5.490000000
H     2.498000000     6.027000000    -5.349000000
C     3.898000000     4.556000000    -6.174000000
H     4.494000000     5.299000000    -6.697000000
C     4.104000000     3.241000000    -6.497000000
H     4.919000000     2.871000000    -7.114000000
C     3.267000000     2.250000000    -6.031000000
O     3.551000000     0.902000000    -6.245000000
C     3.214000000    -0.063000000    -5.356000000
C     2.282000000    -1.004000000    -5.719000000
H     2.000000000    -1.049000000    -6.768000000
C     1.795000000    -1.850000000    -4.801000000
O     0.896000000    -2.854000000    -5.144000000
C     1.003000000    -4.171000000    -4.792000000
C     2.063000000    -4.871000000    -5.209000000
H     2.815000000    -4.312000000    -5.761000000
C     2.234000000    -6.190000000    -4.815000000
H     3.080000000    -6.742000000    -5.215000000
C     1.250000000    -6.831000000    -4.024000000
H     1.288000000    -7.906000000    -3.867000000
C     0.168000000    -6.114000000    -3.546000000
C     0.038000000    -4.799000000    -3.976000000
H    -0.809000000    -4.176000000    -3.701000000
C    -1.948000000    -0.406000000    -1.907000000
H    -2.783000000    -1.051000000    -2.168000000
C    -1.542000000    -0.265000000    -0.594000000
H    -2.123000000    -0.687000000     0.223000000
C    -0.470000000     0.644000000    -0.328000000
H    -0.248000000     0.761000000     0.733000000
C     0.274000000     1.190000000    -1.337000000
H     1.155000000     1.766000000    -1.066000000
C    -0.135000000     1.093000000    -2.647000000
H     0.447000000     1.610000000    -3.406000000
C    -1.246000000     0.287000000    -2.925000000
C    -1.606000000    -0.092000000    -4.327000000
O    -1.048000000     0.401000000    -5.227000000
O    -2.536000000    -0.861000000    -4.564000000
O    -5.047000000    -1.607000000    -4.684000000
H    -5.060000000    -2.136000000    -5.482000000
H    -4.133000000    -1.343000000    -4.585000000
O    -7.177000000     0.892000000    -4.999000000
H    -7.564000000     0.184000000    -5.514000000
H    -6.328000000     0.548000000    -4.720000000
O    -5.294000000    -3.271000000    -6.891000000
H    -5.163000000    -3.701000000    -7.736000000
H    -5.111000000    -3.953000000    -6.244000000
O    -2.073000000     3.372000000    -5.731000000
H    -1.584000000     3.688000000    -6.491000000
H    -1.491000000     2.732000000    -5.321000000
O    -5.360000000    -0.259000000    -2.124000000
H    -5.099000000    -0.815000000    -2.858000000
H    -5.111000000     0.626000000    -2.393000000
O    -2.650000000    -2.634000000    -9.594000000
H    -2.366000000    -3.260000000    -8.928000000
H    -2.604000000    -3.122000000   -10.416000000
O     1.000000000    -2.632000000    -8.244000000
H     0.393000000    -3.315000000    -7.960000000
H     0.682000000    -1.836000000    -7.819000000
O    -4.750000000     2.045000000    -3.660000000
H    -4.478000000     1.458000000    -4.366000000
H    -4.769000000     2.913000000    -4.063000000
O    -3.476000000    -0.173000000    -9.347000000
H    -4.201000000    -0.056000000    -8.733000000
H    -3.349000000    -1.121000000    -9.388000000
O    -1.307000000    -4.205000000    -7.551000000
H    -1.184000000    -5.125000000    -7.318000000
H    -1.495000000    -3.770000000    -6.720000000
O    -2.351000000    -3.359000000    -5.417000000
H    -2.182000000    -2.428000000    -5.268000000
H    -2.943000000    -3.610000000    -4.709000000
O    -4.230000000     4.695000000    -4.692000000
H    -3.450000000     4.279000000    -5.059000000
H    -4.705000000     5.029000000    -5.453000000
O    -5.782000000    -0.077000000    -7.771000000
H    -5.959000000    -0.913000000    -7.340000000
H    -5.399000000     0.470000000    -7.085000000
O    -7.989000000    -2.140000000    -3.462000000
H    -7.158000000    -1.724000000    -3.695000000
H    -8.465000000    -1.466000000    -2.977000000
O    -3.918000000     1.028000000    -6.186000000
H    -3.365000000     0.283000000    -5.950000000
H    -3.314000000     1.661000000    -6.576000000
O     0.791000000     1.549000000    -8.547000000
H     0.312000000     0.947000000    -7.978000000
H     0.226000000     1.656000000    -9.312000000
O    -0.705000000    -0.603000000    -7.532000000
H    -0.768000000    -0.267000000    -6.638000000
H    -1.613000000    -0.703000000    -7.815000000
O     0.618000000     4.446000000    -8.744000000
H     0.605000000     3.491000000    -8.690000000
H     1.474000000     4.653000000    -9.120000000
O    -1.382000000     1.529000000   -10.136000000
H    -2.111000000     1.044000000    -9.750000000
H    -1.324000000     1.202000000   -11.033000000
