215
-1467.92797
C    -4.400000000     1.954000000     0.606000000
H    -3.670000000     2.759000000     0.606000000
C    -4.268000000     0.865000000     1.511000000
C    -5.153000000    -0.258000000     1.367000000
H    -5.085000000    -1.019000000     2.140000000
C    -3.172000000     0.911000000     2.576000000
O    -2.936000000     2.171000000     3.309000000
H    -2.285000000     0.667000000     1.974000000
O    -3.399000000    -0.126000000     3.581000000
C    -2.326000000    -0.914000000     3.946000000
C    -2.312000000    -2.267000000     3.515000000
H    -3.112000000    -2.644000000     2.883000000
C    -1.161000000    -3.012000000     3.686000000
O    -0.986000000    -4.147000000     2.942000000
C    -0.032000000    -2.466000000     4.319000000
C     1.202000000    -3.343000000     4.462000000
H     1.666000000    -3.049000000     5.405000000
C     2.177000000    -3.136000000     3.358000000
C     3.066000000    -2.087000000     3.401000000
H     3.293000000    -1.622000000     4.357000000
H     0.919000000    -4.397000000     4.504000000
C    -0.072000000    -1.087000000     4.748000000
H     0.832000000    -0.689000000     5.203000000
C    -1.184000000    -0.322000000     4.519000000
C    -1.188000000     1.085000000     5.141000000
H    -0.563000000     0.964000000     6.028000000
H    -2.184000000     1.323000000     5.521000000
C    -0.746000000     2.084000000     4.089000000
C     0.568000000     2.570000000     4.102000000
H     1.259000000     2.236000000     4.872000000
C    -1.636000000     2.571000000     3.209000000
C    -1.200000000     3.429000000     2.216000000
H    -1.819000000     3.822000000     1.414000000
C     0.063000000     3.913000000     2.256000000
O     0.497000000     4.632000000     1.179000000
C     1.305000000     4.043000000     0.186000000
C     1.004000000     4.580000000    -1.252000000
C     1.913000000     4.639000000    -2.266000000
H     2.939000000     4.320000000    -2.101000000
C    -0.317000000     5.005000000    -1.546000000
H    -1.105000000     4.938000000    -0.800000000
O     2.646000000     4.337000000     0.516000000
H     1.149000000     2.955000000     0.140000000
C     1.020000000     3.497000000     3.205000000
C     2.435000000     3.901000000     3.228000000
H     2.855000000     3.921000000     4.236000000
H     2.439000000     4.890000000     2.763000000
C     3.166000000     2.918000000     2.357000000
C     3.703000000     1.722000000     2.836000000
H     3.606000000     1.467000000     3.888000000
C     3.325000000     3.231000000     1.037000000
C     3.965000000     2.449000000     0.144000000
H     4.081000000     2.683000000    -0.911000000
C     4.443000000     1.258000000     0.609000000
O     4.911000000     0.307000000    -0.214000000
C     3.971000000    -0.781000000    -0.555000000
C     3.886000000    -0.906000000    -2.052000000
C     4.442000000     0.098000000    -2.912000000
H     5.090000000     0.859000000    -2.484000000
C     3.014000000    -1.810000000    -2.649000000
H     2.436000000    -2.463000000    -2.000000000
O     4.413000000    -2.016000000    -0.017000000
H     3.032000000    -0.561000000    -0.025000000
C     4.273000000     0.834000000     1.924000000
C     4.835000000    -0.516000000     2.484000000
H     5.066000000    -0.458000000     3.550000000
H     5.786000000    -0.682000000     1.974000000
C     3.879000000    -1.708000000     2.313000000
C     3.734000000    -2.419000000     1.133000000
C     2.855000000    -3.512000000     1.077000000
H     2.812000000    -4.003000000     0.108000000
C     2.013000000    -3.848000000     2.106000000
O     0.894000000    -4.685000000     1.899000000
C    -0.327000000    -3.983000000     1.708000000
H    -0.125000000    -2.914000000     1.545000000
C    -1.162000000    -4.636000000     0.608000000
C    -2.571000000    -4.630000000     0.601000000
H    -3.166000000    -4.064000000     1.313000000
C    -0.432000000    -5.283000000    -0.398000000
H     0.654000000    -5.329000000    -0.404000000
C    -1.195000000    -5.943000000    -1.440000000
O    -0.531000000    -6.447000000    -2.505000000
C    -2.583000000    -5.936000000    -1.457000000
H    -3.118000000    -6.453000000    -2.250000000
C    -3.240000000    -5.352000000    -0.418000000
O    -4.629000000    -5.389000000    -0.532000000
C    -5.555000000    -4.658000000     0.227000000
C    -5.740000000    -3.295000000    -0.055000000
H    -5.323000000    -2.826000000    -0.942000000
C    -6.265000000    -5.258000000     1.298000000
H    -5.978000000    -6.222000000     1.711000000
C    -7.280000000    -4.543000000     1.946000000
H    -7.911000000    -5.040000000     2.678000000
C    -7.607000000    -3.269000000     1.560000000
H    -8.478000000    -2.785000000     1.994000000
C    -6.837000000    -2.708000000     0.626000000
O    -7.108000000    -1.354000000     0.339000000
C    -6.147000000    -0.332000000     0.411000000
C    -6.190000000     0.754000000    -0.457000000
H    -6.893000000     0.749000000    -1.286000000
C    -5.355000000     1.834000000    -0.376000000
O    -5.426000000     2.903000000    -1.329000000
C    -4.774000000     4.075000000    -1.311000000
C    -3.715000000     4.221000000    -2.194000000
H    -3.453000000     3.390000000    -2.844000000
C    -5.237000000     5.085000000    -0.507000000
H    -6.155000000     4.911000000     0.048000000
C    -4.571000000     6.325000000    -0.616000000
H    -4.873000000     7.097000000     0.087000000
C    -3.473000000     6.499000000    -1.476000000
H    -2.917000000     7.431000000    -1.530000000
C    -3.113000000     5.459000000    -2.358000000
O    -2.011000000     5.492000000    -3.206000000
C    -0.666000000     5.328000000    -2.825000000
C     0.262000000     5.269000000    -3.842000000
H    -0.026000000     5.465000000    -4.872000000
C     1.589000000     5.090000000    -3.565000000
O     2.533000000     5.122000000    -4.596000000
C     3.686000000     4.369000000    -4.470000000
C     3.652000000     3.103000000    -4.940000000
H     2.745000000     2.776000000    -5.442000000
C     4.876000000     4.936000000    -3.990000000
H     4.937000000     5.972000000    -3.666000000
C     6.039000000     4.129000000    -3.947000000
H     6.990000000     4.542000000    -3.621000000
C     6.051000000     2.875000000    -4.430000000
H     7.017000000     2.393000000    -4.309000000
C     4.791000000     2.332000000    -4.851000000
O     4.775000000     0.997000000    -5.156000000
C     4.196000000     0.100000000    -4.333000000
C     3.483000000    -0.987000000    -4.882000000
H     3.268000000    -0.959000000    -5.947000000
C     2.853000000    -1.894000000    -4.017000000
O     1.907000000    -2.791000000    -4.483000000
C     1.814000000    -4.090000000    -4.176000000
C     2.832000000    -5.000000000    -4.428000000
H     3.766000000    -4.642000000    -4.854000000
C     2.801000000    -6.314000000    -3.944000000
H     3.675000000    -6.929000000    -4.139000000
C     1.637000000    -6.733000000    -3.252000000
H     1.516000000    -7.761000000    -2.921000000
C     0.665000000    -5.824000000    -2.982000000
C     0.704000000    -4.532000000    -3.515000000
H    -0.092000000    -3.832000000    -3.273000000
C    -1.539000000    -0.538000000    -0.757000000
H    -2.544000000    -0.947000000    -0.694000000
C    -0.719000000    -0.616000000     0.352000000
H    -1.057000000    -1.063000000     1.284000000
C     0.548000000     0.008000000     0.384000000
H     1.167000000     0.187000000     1.301000000
C     0.956000000     0.667000000    -0.755000000
H     1.894000000     1.215000000    -0.733000000
C     0.210000000     0.717000000    -1.917000000
H     0.654000000     1.304000000    -2.717000000
C    -1.019000000     0.071000000    -1.957000000
C    -1.798000000    -0.141000000    -3.308000000
O    -1.424000000     0.457000000    -4.284000000
O    -2.804000000    -0.784000000    -3.371000000
O    -7.691000000    -2.500000000    -5.786000000
H    -7.655000000    -3.449000000    -5.671000000
H    -6.833000000    -2.190000000    -5.494000000
O    -5.104000000     1.324000000    -4.349000000
H    -4.447000000     0.677000000    -4.090000000
H    -5.813000000     0.806000000    -4.729000000
O    -1.517000000     3.010000000    -4.884000000
H    -1.562000000     2.073000000    -4.695000000
H    -2.390000000     3.232000000    -5.207000000
O    -4.871000000    -4.007000000    -3.244000000
H    -4.787000000    -3.182000000    -3.722000000
H    -4.095000000    -4.508000000    -3.492000000
O    -0.577000000    -5.240000000    -6.420000000
H    -0.715000000    -4.294000000    -6.375000000
H     0.171000000    -5.345000000    -7.008000000
O    -0.630000000    -1.801000000    -9.559000000
H    -0.514000000    -1.764000000    -8.610000000
H    -1.488000000    -1.406000000    -9.711000000
O    -4.017000000    -1.285000000    -7.618000000
H    -3.787000000    -1.913000000    -8.303000000
H    -4.186000000    -0.469000000    -8.090000000
O    -3.905000000     3.741000000    -9.198000000
H    -3.225000000     4.396000000    -9.355000000
H    -3.783000000     3.483000000    -8.285000000
O    -3.102000000    -5.407000000    -4.750000000
H    -3.600000000    -6.206000000    -4.921000000
H    -2.193000000    -5.647000000    -4.934000000
O    -5.038000000    -1.718000000    -4.990000000
H    -4.620000000    -1.552000000    -5.834000000
H    -4.423000000    -1.371000000    -4.345000000
O    -3.643000000     2.692000000    -6.736000000
H    -4.489000000     2.296000000    -6.527000000
H    -3.047000000     1.948000000    -6.827000000
O    -1.928000000     0.049000000    -6.732000000
H    -2.662000000    -0.564000000    -6.769000000
H    -1.812000000     0.229000000    -5.799000000
O    -6.739000000     3.498000000    -3.977000000
H    -5.984000000     3.151000000    -4.452000000
H    -6.535000000     3.342000000    -3.055000000
O     0.513000000     3.942000000    -6.806000000
H     0.185000000     4.646000000    -7.365000000
H     0.026000000     4.039000000    -5.987000000
O    -0.256000000    -2.303000000    -6.341000000
H    -0.930000000    -1.624000000    -6.338000000
H     0.318000000    -2.074000000    -5.609000000
O     0.862000000     1.043000000    -5.660000000
H     0.089000000     0.685000000    -5.223000000
H     0.657000000     1.969000000    -5.787000000
O    -7.484000000    -4.451000000    -2.362000000
H    -6.558000000    -4.212000000    -2.361000000
H    -7.809000000    -4.147000000    -3.210000000
O     2.250000000     0.749000000    -7.908000000
H     1.533000000     0.994000000    -8.492000000
H     1.880000000     0.824000000    -7.029000000
O    -0.292000000     1.762000000    -8.473000000
H    -0.770000000     1.318000000    -7.773000000
H     0.117000000     2.514000000    -8.043000000
