215
-1444.07320
C    -4.706000000     1.816000000     2.168000000
H    -4.084000000     2.707000000     2.139000000
C    -4.110000000     0.729000000     2.820000000
C    -4.721000000    -0.516000000     2.629000000
H    -4.291000000    -1.334000000     3.202000000
C    -2.732000000     0.823000000     3.469000000
O    -2.572000000     2.139000000     3.951000000
H    -2.009000000     0.676000000     2.654000000
O    -2.537000000    -0.195000000     4.516000000
C    -1.355000000    -0.883000000     4.388000000
C    -1.328000000    -2.130000000     3.842000000
H    -2.201000000    -2.590000000     3.387000000
C    -0.117000000    -2.807000000     3.644000000
O    -0.148000000    -3.886000000     2.833000000
C     1.083000000    -2.302000000     4.117000000
C     2.412000000    -2.993000000     3.918000000
H     3.179000000    -2.629000000     4.605000000
C     3.007000000    -2.652000000     2.507000000
C     3.912000000    -1.607000000     2.370000000
H     4.043000000    -0.957000000     3.231000000
H     2.219000000    -4.045000000     4.139000000
C     1.078000000    -1.052000000     4.738000000
H     1.906000000    -0.413000000     5.035000000
C    -0.207000000    -0.330000000     4.877000000
C    -0.213000000     1.080000000     5.494000000
H     0.562000000     1.374000000     6.204000000
H    -1.112000000     1.184000000     6.106000000
C    -0.180000000     2.071000000     4.409000000
C     1.077000000     2.511000000     3.963000000
H     2.014000000     2.091000000     4.319000000
C    -1.337000000     2.609000000     3.832000000
C    -1.162000000     3.528000000     2.857000000
H    -2.082000000     3.845000000     2.371000000
C     0.087000000     3.949000000     2.333000000
O     0.178000000     4.722000000     1.207000000
C     0.639000000     4.044000000     0.040000000
C    -0.044000000     4.508000000    -1.226000000
C     0.589000000     4.391000000    -2.445000000
H     1.634000000     4.093000000    -2.441000000
C    -1.397000000     4.924000000    -1.139000000
H    -1.927000000     4.914000000    -0.189000000
O     2.128000000     4.263000000    -0.143000000
H     0.487000000     2.959000000     0.136000000
C     1.288000000     3.523000000     3.005000000
C     2.649000000     3.967000000     2.630000000
H     3.345000000     3.960000000     3.471000000
H     2.565000000     5.001000000     2.289000000
C     3.315000000     3.105000000     1.538000000
C     4.196000000     2.029000000     1.854000000
H     4.336000000     1.837000000     2.915000000
C     3.094000000     3.328000000     0.181000000
C     3.592000000     2.460000000    -0.786000000
H     3.416000000     2.674000000    -1.837000000
C     4.456000000     1.422000000    -0.456000000
O     4.730000000     0.566000000    -1.469000000
C     3.952000000    -0.674000000    -1.693000000
C     3.588000000    -0.851000000    -3.161000000
C     3.527000000     0.322000000    -3.970000000
H     3.708000000     1.334000000    -3.616000000
C     3.274000000    -2.125000000    -3.698000000
H     3.305000000    -3.020000000    -3.082000000
O     4.802000000    -1.769000000    -1.133000000
H     3.008000000    -0.558000000    -1.140000000
C     4.750000000     1.173000000     0.857000000
C     5.475000000    -0.030000000     1.241000000
H     5.839000000    -0.071000000     2.270000000
H     6.353000000    -0.049000000     0.592000000
C     4.590000000    -1.304000000     1.232000000
C     4.363000000    -2.132000000     0.105000000
C     3.495000000    -3.224000000     0.208000000
H     3.361000000    -3.850000000    -0.671000000
C     2.765000000    -3.453000000     1.412000000
O     1.738000000    -4.360000000     1.362000000
C     0.403000000    -3.864000000     1.553000000
H     0.556000000    -2.799000000     1.325000000
C    -0.571000000    -4.624000000     0.633000000
C    -1.886000000    -4.987000000     1.011000000
H    -2.211000000    -5.054000000     2.046000000
C    -0.165000000    -4.813000000    -0.694000000
H     0.821000000    -4.487000000    -1.015000000
C    -1.047000000    -5.304000000    -1.670000000
O    -0.629000000    -5.518000000    -2.993000000
C    -2.298000000    -5.682000000    -1.305000000
H    -2.892000000    -6.110000000    -2.108000000
C    -2.729000000    -5.497000000     0.022000000
O    -4.030000000    -5.752000000     0.304000000
C    -4.672000000    -5.128000000     1.298000000
C    -4.987000000    -3.760000000     1.159000000
H    -4.577000000    -3.196000000     0.324000000
C    -5.186000000    -5.870000000     2.426000000
H    -4.835000000    -6.887000000     2.582000000
C    -6.007000000    -5.202000000     3.384000000
H    -6.310000000    -5.752000000     4.271000000
C    -6.153000000    -3.828000000     3.272000000
H    -6.757000000    -3.244000000     3.961000000
C    -5.748000000    -3.083000000     2.138000000
O    -6.473000000    -1.972000000     1.761000000
C    -5.883000000    -0.748000000     1.845000000
C    -6.354000000     0.306000000     1.085000000
H    -7.103000000     0.156000000     0.312000000
C    -5.757000000     1.589000000     1.242000000
O    -6.308000000     2.620000000     0.513000000
C    -5.679000000     3.811000000     0.256000000
C    -4.866000000     4.021000000    -0.839000000
H    -4.825000000     3.241000000    -1.596000000
C    -5.789000000     4.896000000     1.090000000
H    -6.420000000     4.843000000     1.973000000
C    -5.095000000     6.096000000     0.947000000
H    -5.193000000     6.843000000     1.730000000
C    -4.323000000     6.257000000    -0.166000000
H    -3.684000000     7.129000000    -0.280000000
C    -4.169000000     5.220000000    -1.051000000
O    -3.504000000     5.361000000    -2.196000000
C    -2.100000000     5.255000000    -2.284000000
C    -1.489000000     5.147000000    -3.562000000
H    -2.001000000     5.423000000    -4.480000000
C    -0.117000000     4.697000000    -3.623000000
O     0.446000000     4.851000000    -4.835000000
C     1.601000000     4.384000000    -5.336000000
C     1.815000000     3.037000000    -5.321000000
H     1.032000000     2.332000000    -5.052000000
C     2.613000000     5.287000000    -5.719000000
H     2.489000000     6.366000000    -5.743000000
C     3.816000000     4.794000000    -6.244000000
H     4.634000000     5.497000000    -6.378000000
C     4.020000000     3.433000000    -6.334000000
H     4.962000000     3.026000000    -6.694000000
C     3.044000000     2.520000000    -5.865000000
O     3.192000000     1.221000000    -6.208000000
C     3.213000000     0.156000000    -5.322000000
C     3.058000000    -1.128000000    -5.807000000
H     3.005000000    -1.177000000    -6.892000000
C     2.974000000    -2.242000000    -5.042000000
O     2.904000000    -3.518000000    -5.589000000
C     2.464000000    -4.574000000    -4.739000000
C     3.355000000    -5.477000000    -4.274000000
H     4.346000000    -5.488000000    -4.719000000
C     2.928000000    -6.432000000    -3.355000000
H     3.573000000    -7.175000000    -2.893000000
C     1.527000000    -6.464000000    -2.966000000
H     1.203000000    -7.136000000    -2.175000000
C     0.654000000    -5.456000000    -3.453000000
C     1.123000000    -4.542000000    -4.274000000
H     0.488000000    -3.729000000    -4.618000000
C    -1.664000000    -1.357000000    -0.868000000
H    -2.551000000    -1.959000000    -1.050000000
C    -1.309000000    -0.814000000     0.362000000
H    -1.862000000    -1.193000000     1.218000000
C    -0.201000000     0.074000000     0.448000000
H     0.231000000     0.452000000     1.344000000
C     0.475000000     0.419000000    -0.692000000
H     1.435000000     0.927000000    -0.683000000
C     0.087000000    -0.075000000    -1.906000000
H     0.662000000     0.359000000    -2.720000000
C    -1.002000000    -0.899000000    -2.075000000
C    -1.638000000    -1.162000000    -3.395000000
O    -1.163000000    -0.684000000    -4.428000000
O    -2.693000000    -1.720000000    -3.487000000
O    -4.533000000    -3.555000000    -2.691000000
H    -4.188000000    -4.372000000    -3.051000000
H    -3.924000000    -2.883000000    -2.996000000
O    -7.277000000    -1.028000000    -5.138000000
H    -7.182000000    -0.451000000    -4.380000000
H    -6.382000000    -1.286000000    -5.357000000
O    -5.335000000    -2.920000000    -6.878000000
H    -5.585000000    -3.818000000    -7.096000000
H    -4.405000000    -2.977000000    -6.657000000
O    -2.175000000     1.281000000    -5.784000000
H    -1.857000000     1.055000000    -6.658000000
H    -1.819000000     0.599000000    -5.215000000
O    -1.697000000     2.430000000    -8.972000000
H    -1.662000000     2.159000000    -9.889000000
H    -1.283000000     1.712000000    -8.494000000
O    -6.672000000     0.988000000    -3.451000000
H    -5.853000000     0.947000000    -3.944000000
H    -7.107000000     1.778000000    -3.773000000
O    -2.714000000    -3.455000000    -9.221000000
H    -2.304000000    -3.870000000    -8.462000000
H    -3.215000000    -4.157000000    -9.636000000
O     1.225000000    -3.133000000    -8.489000000
H     1.222000000    -3.964000000    -8.965000000
H     0.450000000    -3.175000000    -7.929000000
O    -5.955000000     2.717000000    -5.665000000
H    -6.571000000     2.869000000    -6.382000000
H    -5.096000000     2.896000000    -6.046000000
O    -3.681000000    -0.827000000    -9.995000000
H    -3.908000000    -0.481000000    -9.132000000
H    -3.276000000    -1.676000000    -9.814000000
O    -2.931000000    -3.481000000    -5.788000000
H    -3.093000000    -2.845000000    -5.091000000
H    -3.143000000    -4.327000000    -5.394000000
O    -3.608000000     3.295000000    -6.722000000
H    -3.117000000     2.626000000    -6.245000000
H    -3.189000000     3.332000000    -7.582000000
O    -5.271000000    -0.357000000    -7.753000000
H    -5.419000000    -1.287000000    -7.581000000
H    -5.587000000     0.085000000    -6.965000000
O    -6.806000000    -2.297000000    -2.072000000
H    -6.025000000    -2.849000000    -2.065000000
H    -6.476000000    -1.412000000    -1.917000000
O    -6.915000000    -4.453000000    -4.379000000
H    -7.088000000    -3.604000000    -3.971000000
H    -6.219000000    -4.276000000    -5.012000000
O    -4.512000000    -0.317000000    -4.975000000
H    -3.888000000    -0.827000000    -4.458000000
H    -4.021000000     0.457000000    -5.248000000
O    -0.670000000     0.203000000    -7.880000000
H     0.206000000     0.437000000    -8.187000000
H    -0.552000000    -0.637000000    -7.437000000
O    -0.612000000    -2.101000000    -6.500000000
H    -0.648000000    -1.409000000    -5.840000000
H    -1.303000000    -2.713000000    -6.244000000
O    -3.536000000    -5.856000000    -4.469000000
H    -2.921000000    -6.524000000    -4.772000000
H    -4.210000000    -6.347000000    -3.998000000
