215
-1421.78485
C     3.089000000    -0.973000000    -4.034000000
H     2.800000000    -2.017000000    -4.119000000
C     3.627000000    -0.398000000    -2.862000000
C     3.937000000     0.921000000    -2.801000000
H     4.320000000     1.321000000    -1.866000000
C     3.669000000    -1.155000000    -1.556000000
O     3.773000000    -2.530000000    -1.712000000
H     2.696000000    -0.971000000    -1.078000000
O     4.742000000    -0.761000000    -0.732000000
C     4.593000000    -0.607000000     0.619000000
C     4.303000000     0.667000000     1.061000000
H     4.754000000     1.524000000     0.566000000
C     3.896000000     0.800000000     2.332000000
O     3.567000000     2.050000000     2.649000000
C     3.629000000    -0.291000000     3.208000000
C     3.164000000    -0.024000000     4.632000000
H     3.397000000    -0.887000000     5.258000000
C     1.662000000     0.225000000     4.634000000
C     0.780000000    -0.872000000     4.913000000
H     1.222000000    -1.857000000     5.041000000
H     3.683000000     0.835000000     5.062000000
C     3.941000000    -1.561000000     2.730000000
H     3.799000000    -2.447000000     3.343000000
C     4.462000000    -1.715000000     1.441000000
C     4.652000000    -3.125000000     0.876000000
H     5.014000000    -3.629000000     1.775000000
H     5.466000000    -3.138000000     0.149000000
C     3.343000000    -3.695000000     0.282000000
C     2.419000000    -4.468000000     0.980000000
H     2.498000000    -4.798000000     2.013000000
C     2.958000000    -3.358000000    -1.028000000
C     1.754000000    -3.727000000    -1.575000000
H     1.426000000    -3.363000000    -2.545000000
C     0.848000000    -4.367000000    -0.773000000
O    -0.358000000    -4.709000000    -1.326000000
C    -1.475000000    -3.809000000    -1.135000000
C    -2.296000000    -3.590000000    -2.383000000
C    -3.677000000    -3.389000000    -2.351000000
H    -4.224000000    -3.296000000    -1.415000000
C    -1.720000000    -3.634000000    -3.653000000
H    -0.637000000    -3.690000000    -3.728000000
O    -2.215000000    -4.410000000    -0.041000000
H    -1.085000000    -2.845000000    -0.776000000
C     1.128000000    -4.669000000     0.531000000
C     0.152000000    -5.362000000     1.412000000
H     0.503000000    -6.068000000     2.168000000
H    -0.401000000    -6.024000000     0.742000000
C    -0.841000000    -4.286000000     1.997000000
C    -0.564000000    -3.570000000     3.131000000
H     0.294000000    -3.941000000     3.685000000
C    -1.963000000    -3.951000000     1.217000000
C    -2.837000000    -2.892000000     1.565000000
H    -3.591000000    -2.594000000     0.841000000
C    -2.663000000    -2.365000000     2.823000000
O    -3.440000000    -1.225000000     3.096000000
C    -2.947000000     0.116000000     2.953000000
C    -3.963000000     0.994000000     2.204000000
C    -4.572000000     0.559000000     1.016000000
H    -4.465000000    -0.518000000     0.922000000
C    -3.988000000     2.394000000     2.415000000
H    -3.440000000     2.786000000     3.268000000
O    -2.503000000     0.713000000     4.175000000
H    -2.047000000     0.113000000     2.320000000
C    -1.569000000    -2.712000000     3.639000000
C    -1.415000000    -1.994000000     5.017000000
H    -0.993000000    -2.642000000     5.788000000
H    -2.405000000    -1.855000000     5.455000000
C    -0.586000000    -0.740000000     4.870000000
C    -1.155000000     0.517000000     4.591000000
C    -0.353000000     1.567000000     4.394000000
H    -0.789000000     2.511000000     4.077000000
C     1.049000000     1.467000000     4.439000000
O     1.765000000     2.535000000     4.093000000
C     2.230000000     2.530000000     2.702000000
H     1.596000000     1.887000000     2.074000000
C     2.058000000     3.904000000     2.073000000
C     2.989000000     4.367000000     1.158000000
H     3.932000000     3.849000000     0.998000000
C     0.903000000     4.638000000     2.437000000
H     0.141000000     4.227000000     3.095000000
C     0.666000000     5.864000000     1.875000000
O    -0.397000000     6.691000000     2.256000000
C     1.638000000     6.335000000     0.980000000
H     1.455000000     7.302000000     0.519000000
C     2.791000000     5.602000000     0.601000000
O     3.514000000     6.130000000    -0.424000000
C     4.228000000     5.355000000    -1.241000000
C     3.648000000     4.525000000    -2.149000000
H     2.572000000     4.394000000    -2.060000000
C     5.595000000     5.567000000    -1.175000000
H     5.959000000     6.350000000    -0.515000000
C     6.423000000     4.827000000    -2.109000000
H     7.504000000     4.935000000    -2.130000000
C     5.813000000     3.935000000    -3.015000000
H     6.301000000     3.481000000    -3.873000000
C     4.429000000     3.764000000    -3.015000000
O     3.892000000     3.070000000    -4.012000000
C     3.666000000     1.731000000    -3.971000000
C     3.145000000     1.176000000    -5.112000000
H     2.971000000     1.808000000    -5.979000000
C     2.839000000    -0.179000000    -5.122000000
O     2.343000000    -0.719000000    -6.289000000
C     1.583000000    -1.868000000    -6.326000000
C     0.176000000    -1.989000000    -5.980000000
H    -0.409000000    -1.185000000    -5.542000000
C     2.233000000    -2.953000000    -6.935000000
H     3.283000000    -2.838000000    -7.192000000
C     1.458000000    -4.079000000    -7.271000000
H     1.966000000    -4.917000000    -7.742000000
C     0.153000000    -4.276000000    -6.920000000
H    -0.251000000    -5.249000000    -7.188000000
C    -0.484000000    -3.167000000    -6.279000000
O    -1.864000000    -3.278000000    -6.036000000
C    -2.502000000    -3.383000000    -4.823000000
C    -3.923000000    -3.360000000    -4.743000000
H    -4.439000000    -3.256000000    -5.695000000
C    -4.470000000    -3.319000000    -3.515000000
O    -5.807000000    -3.183000000    -3.313000000
C    -6.348000000    -2.452000000    -2.301000000
C    -5.919000000    -1.119000000    -2.257000000
H    -5.218000000    -0.740000000    -2.996000000
C    -7.240000000    -2.936000000    -1.283000000
H    -7.434000000    -4.006000000    -1.279000000
C    -7.536000000    -2.200000000    -0.158000000
H    -8.195000000    -2.600000000     0.608000000
C    -7.136000000    -0.892000000    -0.144000000
H    -7.520000000    -0.290000000     0.675000000
C    -6.307000000    -0.345000000    -1.155000000
O    -5.840000000     0.930000000    -1.038000000
C    -5.220000000     1.380000000     0.109000000
C    -5.317000000     2.695000000     0.430000000
H    -5.770000000     3.390000000    -0.272000000
C    -4.713000000     3.234000000     1.581000000
O    -4.687000000     4.584000000     1.755000000
C    -3.752000000     5.238000000     2.468000000
C    -4.088000000     5.515000000     3.822000000
H    -4.998000000     5.180000000     4.311000000
C    -3.138000000     6.118000000     4.696000000
H    -3.390000000     6.352000000     5.727000000
C    -1.952000000     6.596000000     4.102000000
H    -1.310000000     7.164000000     4.770000000
C    -1.586000000     6.259000000     2.806000000
C    -2.437000000     5.562000000     2.001000000
H    -2.159000000     5.183000000     1.021000000
C    -1.480000000     0.217000000    -2.662000000
H    -1.702000000    -0.102000000    -3.677000000
C    -0.461000000    -0.350000000    -1.983000000
H     0.166000000    -1.167000000    -2.332000000
C    -0.169000000     0.038000000    -0.666000000
H     0.540000000    -0.517000000     0.039000000
C    -0.864000000     1.050000000    -0.108000000
H    -0.659000000     1.307000000     0.928000000
C    -1.777000000     1.776000000    -0.835000000
H    -2.223000000     2.637000000    -0.345000000
C    -2.071000000     1.374000000    -2.170000000
C    -3.029000000     2.229000000    -2.967000000
O    -3.369000000     3.345000000    -2.588000000
O    -3.219000000     1.860000000    -4.140000000
O    -6.176000000     3.638000000    -2.874000000
H    -5.374000000     3.226000000    -2.551000000
H    -5.997000000     3.820000000    -3.797000000
O    -0.861000000     7.648000000    -1.584000000
H    -0.782000000     6.695000000    -1.616000000
H    -1.745000000     7.805000000    -1.253000000
O    -3.793000000    -1.004000000    -8.401000000
H    -3.273000000    -0.541000000    -7.744000000
H    -4.538000000    -1.356000000    -7.912000000
O    -6.246000000     4.457000000    -5.471000000
H    -6.340000000     3.892000000    -6.238000000
H    -6.090000000     5.329000000    -5.834000000
O    -2.853000000     4.219000000    -5.697000000
H    -2.868000000     3.549000000    -5.013000000
H    -3.554000000     4.824000000    -5.454000000
O    -8.264000000     4.904000000    -1.666000000
H    -8.240000000     4.560000000    -0.773000000
H    -7.489000000     4.531000000    -2.087000000
O    -6.408000000     2.936000000    -8.030000000
H    -6.916000000     2.130000000    -8.117000000
H    -5.530000000     2.699000000    -8.328000000
O    -8.137000000     1.491000000    -4.452000000
H    -7.504000000     1.493000000    -3.734000000
H    -7.715000000     0.975000000    -5.140000000
O     1.422000000     4.369000000    -6.355000000
H     2.166000000     4.120000000    -5.807000000
H     1.153000000     5.224000000    -6.018000000
O    -5.915000000     7.042000000    -6.456000000
H    -5.117000000     6.934000000    -5.940000000
H    -5.810000000     7.890000000    -6.887000000
O    -0.264000000     1.966000000    -5.986000000
H    -0.298000000     2.156000000    -5.049000000
H     0.250000000     2.683000000    -6.357000000
O    -3.624000000     6.016000000    -1.221000000
H    -2.974000000     5.903000000    -1.915000000
H    -3.984000000     5.139000000    -1.085000000
O    -0.988000000     4.809000000    -2.571000000
H    -1.850000000     4.395000000    -2.529000000
H    -0.432000000     4.160000000    -3.002000000
O    -3.284000000     7.249000000    -5.127000000
H    -2.395000000     6.908000000    -5.034000000
H    -3.284000000     8.059000000    -4.617000000
O     0.762000000     2.510000000    -3.045000000
H     0.589000000     2.265000000    -2.136000000
H     0.834000000     1.675000000    -3.508000000
O    -8.765000000     1.975000000    -1.629000000
H    -7.849000000     2.126000000    -1.862000000
H    -8.860000000     2.370000000    -0.762000000
O    -2.733000000     0.238000000    -6.218000000
H    -1.876000000     0.559000000    -6.500000000
H    -2.901000000     0.696000000    -5.395000000
O    -0.863000000     4.753000000    -7.669000000
H    -1.496000000     4.483000000    -7.004000000
H    -0.009000000     4.580000000    -7.273000000
O    -5.155000000     8.351000000    -0.784000000
H    -4.760000000     8.703000000     0.014000000
H    -4.838000000     7.449000000    -0.830000000
