215
-1456.47743
C    -3.520000000     2.553000000     2.574000000
H    -2.840000000     3.257000000     2.101000000
C    -3.012000000     1.729000000     3.602000000
C    -3.928000000     0.737000000     4.051000000
H    -3.626000000    -0.115000000     4.655000000
C    -1.534000000     1.629000000     3.844000000
O    -0.941000000     2.930000000     4.045000000
H    -1.154000000     1.223000000     2.895000000
O    -1.217000000     0.791000000     5.021000000
C    -0.270000000    -0.164000000     4.884000000
C    -0.694000000    -1.416000000     4.371000000
H    -1.739000000    -1.498000000     4.086000000
C     0.257000000    -2.389000000     4.022000000
O    -0.245000000    -3.451000000     3.314000000
C     1.616000000    -2.139000000     4.213000000
C     2.691000000    -3.091000000     3.731000000
H     3.603000000    -2.921000000     4.308000000
C     3.011000000    -2.819000000     2.300000000
C     4.117000000    -2.102000000     1.938000000
H     4.756000000    -1.615000000     2.671000000
H     2.483000000    -4.149000000     3.905000000
C     1.997000000    -0.850000000     4.514000000
H     3.031000000    -0.632000000     4.769000000
C     1.101000000     0.124000000     4.931000000
C     1.533000000     1.577000000     5.164000000
H     2.559000000     1.618000000     5.535000000
H     0.945000000     1.923000000     6.017000000
C     1.488000000     2.410000000     3.884000000
C     2.663000000     2.566000000     3.145000000
H     3.554000000     1.973000000     3.334000000
C     0.344000000     3.182000000     3.587000000
C     0.372000000     3.958000000     2.420000000
H    -0.575000000     4.298000000     2.009000000
C     1.452000000     4.086000000     1.578000000
O     1.253000000     4.643000000     0.312000000
C     1.353000000     3.677000000    -0.863000000
C     0.327000000     3.955000000    -1.913000000
C     0.431000000     3.322000000    -3.163000000
H     1.290000000     2.680000000    -3.343000000
C    -0.689000000     4.898000000    -1.675000000
H    -0.746000000     5.370000000    -0.698000000
O     2.697000000     3.651000000    -1.371000000
H     1.258000000     2.655000000    -0.467000000
C     2.622000000     3.447000000     2.046000000
C     3.928000000     3.593000000     1.324000000
H     4.777000000     3.496000000     2.004000000
H     3.970000000     4.542000000     0.786000000
C     4.057000000     2.481000000     0.258000000
C     4.722000000     1.351000000     0.615000000
H     5.159000000     1.314000000     1.609000000
C     3.461000000     2.621000000    -1.032000000
C     3.778000000     1.622000000    -1.981000000
H     3.258000000     1.701000000    -2.933000000
C     4.504000000     0.491000000    -1.597000000
O     4.615000000    -0.505000000    -2.460000000
C     3.588000000    -1.544000000    -2.419000000
C     2.981000000    -1.882000000    -3.759000000
C     3.022000000    -0.905000000    -4.800000000
H     3.522000000     0.043000000    -4.617000000
C     2.349000000    -3.111000000    -3.922000000
H     2.310000000    -3.901000000    -3.176000000
O     4.027000000    -2.738000000    -1.725000000
H     2.765000000    -1.006000000    -1.925000000
C     4.919000000     0.306000000    -0.243000000
C     5.536000000    -0.999000000     0.253000000
H     6.242000000    -0.718000000     1.037000000
H     6.187000000    -1.383000000    -0.535000000
C     4.480000000    -2.066000000     0.605000000
C     3.786000000    -2.742000000    -0.381000000
C     2.607000000    -3.448000000    -0.033000000
H     2.054000000    -3.940000000    -0.829000000
C     2.212000000    -3.438000000     1.323000000
O     1.055000000    -4.196000000     1.517000000
C    -0.098000000    -3.354000000     1.903000000
H     0.225000000    -2.357000000     1.569000000
C    -1.367000000    -3.802000000     1.151000000
C    -2.609000000    -3.854000000     1.837000000
H    -2.697000000    -3.708000000     2.911000000
C    -1.332000000    -4.050000000    -0.219000000
H    -0.399000000    -4.134000000    -0.769000000
C    -2.547000000    -4.402000000    -0.903000000
O    -2.399000000    -4.748000000    -2.205000000
C    -3.786000000    -4.338000000    -0.270000000
H    -4.673000000    -4.535000000    -0.866000000
C    -3.816000000    -4.081000000     1.109000000
O    -5.070000000    -4.159000000     1.723000000
C    -5.281000000    -3.485000000     2.935000000
C    -5.635000000    -2.109000000     2.997000000
H    -5.644000000    -1.556000000     2.062000000
C    -5.133000000    -4.138000000     4.189000000
H    -4.778000000    -5.164000000     4.128000000
C    -5.473000000    -3.502000000     5.379000000
H    -5.530000000    -4.113000000     6.276000000
C    -5.841000000    -2.166000000     5.404000000
H    -6.095000000    -1.661000000     6.332000000
C    -5.834000000    -1.470000000     4.204000000
O    -6.175000000    -0.156000000     4.240000000
C    -5.283000000     0.747000000     3.654000000
C    -5.762000000     1.573000000     2.640000000
H    -6.779000000     1.407000000     2.295000000
C    -4.855000000     2.502000000     2.143000000
O    -5.186000000     3.274000000     1.031000000
C    -4.565000000     4.445000000     0.736000000
C    -4.191000000     4.631000000    -0.563000000
H    -4.392000000     3.772000000    -1.198000000
C    -4.271000000     5.449000000     1.713000000
H    -4.563000000     5.224000000     2.735000000
C    -3.575000000     6.542000000     1.278000000
H    -3.282000000     7.260000000     2.040000000
C    -3.169000000     6.734000000    -0.038000000
H    -2.593000000     7.607000000    -0.335000000
C    -3.441000000     5.719000000    -1.017000000
O    -2.903000000     5.817000000    -2.283000000
C    -1.736000000     5.115000000    -2.624000000
C    -1.580000000     4.486000000    -3.831000000
H    -2.400000000     4.505000000    -4.544000000
C    -0.490000000     3.660000000    -4.128000000
O    -0.487000000     3.105000000    -5.364000000
C     0.607000000     2.814000000    -6.110000000
C     0.856000000     1.451000000    -6.304000000
H     0.181000000     0.674000000    -5.954000000
C     1.571000000     3.763000000    -6.489000000
H     1.327000000     4.815000000    -6.361000000
C     2.759000000     3.382000000    -7.119000000
H     3.522000000     4.095000000    -7.422000000
C     3.062000000     2.015000000    -7.272000000
H     3.833000000     1.545000000    -7.878000000
C     2.123000000     1.111000000    -6.786000000
O     2.334000000    -0.227000000    -7.050000000
C     2.408000000    -1.156000000    -6.040000000
C     1.712000000    -2.332000000    -6.172000000
H     1.229000000    -2.451000000    -7.138000000
C     1.760000000    -3.314000000    -5.165000000
O     1.077000000    -4.480000000    -5.451000000
C     0.469000000    -5.131000000    -4.416000000
C     1.042000000    -6.365000000    -3.981000000
H     1.951000000    -6.726000000    -4.456000000
C     0.313000000    -7.168000000    -3.111000000
H     0.697000000    -8.148000000    -2.840000000
C    -0.915000000    -6.598000000    -2.561000000
H    -1.371000000    -7.151000000    -1.745000000
C    -1.301000000    -5.252000000    -2.817000000
C    -0.657000000    -4.564000000    -3.858000000
H    -1.097000000    -3.663000000    -4.275000000
C    -2.361000000     0.243000000    -0.554000000
H    -3.414000000     0.158000000    -0.298000000
C    -1.455000000     0.068000000     0.537000000
H    -1.749000000    -0.037000000     1.578000000
C    -0.151000000     0.049000000     0.286000000
H     0.610000000    -0.169000000     0.920000000
C     0.264000000     0.302000000    -1.060000000
H     1.340000000     0.269000000    -1.216000000
C    -0.617000000     0.523000000    -2.146000000
H    -0.194000000     0.633000000    -3.142000000
C    -1.970000000     0.462000000    -1.913000000
C    -2.960000000     0.496000000    -2.999000000
O    -2.580000000     0.399000000    -4.153000000
O    -4.164000000     0.384000000    -2.836000000
O    -7.192000000     0.950000000    -4.296000000
H    -6.448000000     1.526000000    -4.119000000
H    -7.268000000     0.943000000    -5.250000000
O    -7.572000000     1.746000000    -0.166000000
H    -7.903000000     2.412000000     0.437000000
H    -8.329000000     1.510000000    -0.702000000
O    -7.215000000     4.908000000    -6.347000000
H    -7.008000000     4.724000000    -5.430000000
H    -8.119000000     5.223000000    -6.329000000
O    -3.396000000     2.487000000    -5.895000000
H    -2.516000000     2.841000000    -5.773000000
H    -3.278000000     1.537000000    -5.872000000
O    -4.673000000     4.288000000    -7.443000000
H    -4.436000000     3.482000000    -6.985000000
H    -5.559000000     4.485000000    -7.139000000
O    -6.055000000    -0.377000000    -0.867000000
H    -6.457000000     0.489000000    -0.799000000
H    -5.416000000    -0.290000000    -1.575000000
O    -4.745000000    -1.039000000    -5.072000000
H    -5.421000000    -0.747000000    -4.461000000
H    -3.943000000    -0.618000000    -4.762000000
O    -8.313000000    -1.108000000    -3.201000000
H    -7.889000000    -0.319000000    -3.541000000
H    -7.680000000    -1.472000000    -2.582000000
O    -4.437000000    -1.382000000    -7.738000000
H    -4.526000000    -1.234000000    -6.797000000
H    -5.317000000    -1.241000000    -8.087000000
O    -8.775000000    -1.082000000     0.239000000
H    -7.953000000    -0.620000000     0.075000000
H    -9.354000000    -0.416000000     0.610000000
O    -5.097000000     2.633000000    -3.795000000
H    -4.797000000     1.808000000    -3.415000000
H    -4.656000000     2.681000000    -4.643000000
O    -2.284000000    -0.002000000    -8.409000000
H    -3.131000000    -0.445000000    -8.354000000
H    -1.780000000    -0.525000000    -9.032000000
O    -6.703000000     4.602000000    -3.651000000
H    -6.420000000     5.462000000    -3.340000000
H    -5.983000000     4.015000000    -3.420000000
O    -1.665000000    -1.214000000    -6.136000000
H    -1.927000000    -0.680000000    -5.386000000
H    -1.838000000    -0.660000000    -6.897000000
O    -6.536000000    -2.999000000    -1.506000000
H    -6.340000000    -2.097000000    -1.252000000
H    -6.833000000    -3.416000000    -0.697000000
O    -7.803000000     1.028000000    -7.111000000
H    -7.915000000     1.726000000    -7.755000000
H    -7.591000000     0.253000000    -7.631000000
O    -7.472000000    -4.569000000    -3.861000000
H    -6.834000000    -3.993000000    -3.439000000
H    -8.143000000    -4.712000000    -3.194000000
O    -2.066000000    -3.823000000    -7.206000000
H    -1.680000000    -3.407000000    -7.976000000
H    -2.206000000    -3.104000000    -6.590000000
O    -4.173000000    -4.708000000    -4.783000000
H    -4.317000000    -3.816000000    -5.099000000
H    -3.575000000    -4.605000000    -4.042000000
