215
-1455.71966
C    -4.029000000     2.392000000     2.885000000
H    -3.477000000     3.272000000     2.567000000
C    -3.374000000     1.371000000     3.588000000
C    -4.134000000     0.281000000     4.112000000
H    -3.732000000    -0.583000000     4.634000000
C    -1.854000000     1.447000000     3.797000000
O    -1.362000000     2.829000000     3.986000000
H    -1.407000000     1.054000000     2.872000000
O    -1.371000000     0.592000000     4.878000000
C    -0.342000000    -0.244000000     4.680000000
C    -0.535000000    -1.602000000     4.383000000
H    -1.530000000    -2.037000000     4.439000000
C     0.563000000    -2.365000000     4.095000000
O     0.357000000    -3.636000000     3.567000000
C     1.836000000    -1.836000000     4.108000000
C     3.025000000    -2.659000000     3.842000000
H     3.842000000    -2.222000000     4.421000000
C     3.355000000    -2.583000000     2.340000000
C     4.210000000    -1.562000000     1.989000000
H     4.634000000    -0.968000000     2.795000000
H     2.851000000    -3.649000000     4.269000000
C     2.014000000    -0.534000000     4.553000000
H     3.005000000    -0.101000000     4.662000000
C     0.934000000     0.260000000     4.858000000
C     1.093000000     1.815000000     5.274000000
H     2.033000000     1.979000000     5.804000000
H     0.348000000     2.100000000     6.020000000
C     1.083000000     2.727000000     4.065000000
C     2.284000000     3.218000000     3.490000000
H     3.216000000     2.920000000     3.963000000
C    -0.097000000     3.188000000     3.523000000
C    -0.105000000     3.945000000     2.344000000
H    -1.011000000     4.319000000     1.875000000
C     1.096000000     4.204000000     1.658000000
O     0.989000000     4.777000000     0.440000000
C     1.280000000     3.961000000    -0.666000000
C     0.177000000     4.078000000    -1.750000000
C     0.601000000     4.008000000    -3.110000000
H     1.648000000     3.954000000    -3.398000000
C    -1.155000000     4.110000000    -1.495000000
H    -1.535000000     4.022000000    -0.480000000
O     2.652000000     4.221000000    -1.068000000
H     1.233000000     2.926000000    -0.297000000
C     2.320000000     3.883000000     2.280000000
C     3.653000000     4.049000000     1.631000000
H     4.439000000     4.064000000     2.390000000
H     3.623000000     5.018000000     1.129000000
C     3.964000000     3.016000000     0.540000000
C     4.666000000     1.820000000     0.816000000
H     5.067000000     1.670000000     1.815000000
C     3.493000000     3.151000000    -0.752000000
C     3.746000000     2.293000000    -1.774000000
H     3.292000000     2.526000000    -2.733000000
C     4.441000000     1.114000000    -1.501000000
O     4.482000000     0.110000000    -2.451000000
C     3.553000000    -0.968000000    -2.301000000
C     3.063000000    -1.351000000    -3.702000000
C     2.953000000    -0.397000000    -4.751000000
H     3.260000000     0.633000000    -4.585000000
C     2.495000000    -2.660000000    -3.966000000
H     2.448000000    -3.328000000    -3.109000000
O     4.130000000    -2.116000000    -1.679000000
H     2.682000000    -0.681000000    -1.694000000
C     4.886000000     0.882000000    -0.210000000
C     5.623000000    -0.453000000     0.211000000
H     6.274000000    -0.192000000     1.047000000
H     6.378000000    -0.654000000    -0.552000000
C     4.569000000    -1.532000000     0.617000000
C     3.852000000    -2.227000000    -0.303000000
C     2.921000000    -3.187000000     0.018000000
H     2.312000000    -3.585000000    -0.790000000
C     2.693000000    -3.344000000     1.372000000
O     1.698000000    -4.210000000     1.723000000
C     0.454000000    -3.586000000     2.116000000
H     0.489000000    -2.524000000     1.833000000
C    -0.758000000    -4.192000000     1.371000000
C    -2.026000000    -4.307000000     1.955000000
H    -2.157000000    -3.921000000     2.963000000
C    -0.658000000    -4.516000000     0.021000000
H     0.230000000    -4.234000000    -0.539000000
C    -1.739000000    -4.999000000    -0.721000000
O    -1.651000000    -5.447000000    -2.067000000
C    -3.020000000    -4.929000000    -0.150000000
H    -3.957000000    -5.229000000    -0.613000000
C    -3.181000000    -4.600000000     1.206000000
O    -4.429000000    -4.704000000     1.718000000
C    -4.751000000    -4.188000000     2.904000000
C    -5.145000000    -2.872000000     2.963000000
H    -5.048000000    -2.219000000     2.099000000
C    -4.848000000    -4.993000000     4.068000000
H    -4.484000000    -6.009000000     3.943000000
C    -5.464000000    -4.485000000     5.171000000
H    -5.563000000    -5.128000000     6.042000000
C    -5.888000000    -3.106000000     5.238000000
H    -6.449000000    -2.794000000     6.116000000
C    -5.761000000    -2.281000000     4.114000000
O    -6.228000000    -1.031000000     4.089000000
C    -5.515000000     0.165000000     3.842000000
C    -6.083000000     1.155000000     3.093000000
H    -7.146000000     1.119000000     2.869000000
C    -5.361000000     2.230000000     2.553000000
O    -6.065000000     3.144000000     1.812000000
C    -5.454000000     4.037000000     0.864000000
C    -4.718000000     3.513000000    -0.209000000
H    -4.466000000     2.477000000    -0.422000000
C    -5.628000000     5.415000000     0.928000000
H    -6.166000000     5.838000000     1.773000000
C    -4.973000000     6.279000000     0.087000000
H    -5.058000000     7.350000000     0.251000000
C    -4.254000000     5.747000000    -1.001000000
H    -3.660000000     6.335000000    -1.697000000
C    -4.136000000     4.371000000    -1.165000000
O    -3.483000000     3.917000000    -2.284000000
C    -2.115000000     3.948000000    -2.484000000
C    -1.698000000     3.870000000    -3.820000000
H    -2.427000000     3.684000000    -4.604000000
C    -0.344000000     3.981000000    -4.117000000
O    -0.053000000     3.929000000    -5.436000000
C     1.070000000     3.423000000    -5.991000000
C     1.204000000     2.061000000    -6.163000000
H     0.429000000     1.390000000    -5.803000000
C     1.882000000     4.343000000    -6.677000000
H     1.744000000     5.414000000    -6.551000000
C     2.915000000     3.896000000    -7.520000000
H     3.425000000     4.650000000    -8.114000000
C     3.173000000     2.527000000    -7.489000000
H     3.969000000     2.217000000    -8.162000000
C     2.298000000     1.595000000    -6.924000000
O     2.511000000     0.192000000    -7.011000000
C     2.398000000    -0.689000000    -5.971000000
C     1.902000000    -1.967000000    -6.162000000
H     1.432000000    -2.126000000    -7.130000000
C     1.880000000    -2.923000000    -5.167000000
O     1.355000000    -4.179000000    -5.498000000
C     0.972000000    -5.079000000    -4.528000000
C     1.445000000    -6.355000000    -4.685000000
H     2.063000000    -6.659000000    -5.526000000
C     0.900000000    -7.331000000    -3.802000000
H     1.314000000    -8.334000000    -3.872000000
C    -0.045000000    -6.996000000    -2.817000000
H    -0.504000000    -7.781000000    -2.220000000
C    -0.522000000    -5.685000000    -2.772000000
C    -0.035000000    -4.759000000    -3.671000000
H    -0.585000000    -3.822000000    -3.712000000
C    -2.189000000    -0.382000000    -0.226000000
H    -3.113000000    -0.846000000     0.111000000
C    -1.080000000    -0.617000000     0.616000000
H    -1.154000000    -1.078000000     1.598000000
C     0.205000000    -0.201000000     0.195000000
H     0.983000000    -0.552000000     0.825000000
C     0.298000000     0.433000000    -1.050000000
H     1.257000000     0.811000000    -1.393000000
C    -0.813000000     0.536000000    -1.930000000
H    -0.746000000     0.883000000    -2.958000000
C    -2.127000000     0.195000000    -1.504000000
C    -3.403000000     0.254000000    -2.324000000
O    -3.309000000     0.594000000    -3.493000000
O    -4.472000000    -0.005000000    -1.812000000
O    -8.451000000     0.998000000    -4.052000000
H    -7.568000000     1.171000000    -3.724000000
H    -8.314000000     0.596000000    -4.910000000
O    -8.311000000     1.675000000    -0.760000000
H    -8.728000000     1.872000000     0.079000000
H    -7.936000000     2.509000000    -1.043000000
O    -4.188000000     1.750000000    -5.441000000
H    -4.429000000     0.907000000    -5.827000000
H    -3.734000000     1.521000000    -4.630000000
O    -5.126000000     3.602000000    -7.203000000
H    -4.489000000     3.108000000    -6.687000000
H    -5.345000000     4.356000000    -6.655000000
O    -6.722000000    -0.559000000    -0.530000000
H    -7.308000000     0.086000000    -0.926000000
H    -5.847000000    -0.291000000    -0.810000000
O    -3.382000000    -3.786000000    -3.933000000
H    -3.879000000    -3.468000000    -3.180000000
H    -3.230000000    -3.006000000    -4.467000000
O    -9.057000000    -1.414000000    -2.725000000
H    -8.786000000    -0.498000000    -2.783000000
H    -8.857000000    -1.779000000    -3.587000000
O    -9.131000000    -1.639000000     0.433000000
H    -8.405000000    -1.237000000    -0.044000000
H    -9.729000000    -0.913000000     0.613000000
O    -5.958000000     2.091000000    -3.197000000
H    -5.509000000     1.504000000    -2.588000000
H    -5.306000000     2.279000000    -3.873000000
O    -3.662000000    -0.663000000    -7.736000000
H    -4.565000000    -0.917000000    -7.923000000
H    -3.318000000    -0.364000000    -8.577000000
O    -7.584000000     4.468000000    -1.786000000
H    -7.721000000     3.972000000    -2.594000000
H    -6.639000000     4.619000000    -1.756000000
O    -3.315000000    -1.446000000    -5.171000000
H    -3.253000000    -0.761000000    -4.505000000
H    -3.421000000    -0.969000000    -5.994000000
O    -5.838000000    -3.219000000    -5.558000000
H    -5.143000000    -2.614000000    -5.298000000
H    -6.172000000    -3.569000000    -4.732000000
O    -5.395000000    -2.621000000    -2.245000000
H    -5.022000000    -1.744000000    -2.329000000
H    -6.015000000    -2.549000000    -1.519000000
O    -6.848000000    -3.966000000    -0.128000000
H    -7.524000000    -3.462000000     0.326000000
H    -6.151000000    -4.071000000     0.520000000
O    -2.054000000     4.820000000    -7.070000000
H    -1.942000000     3.972000000    -7.499000000
H    -1.507000000     4.765000000    -6.286000000
O    -6.039000000    -5.015000000    -3.288000000
H    -5.764000000    -4.159000000    -2.960000000
H    -6.730000000    -5.291000000    -2.685000000
O    -1.464000000    -2.331000000    -6.884000000
H    -2.179000000    -1.791000000    -7.220000000
H    -1.577000000    -2.312000000    -5.933000000
O    -3.261000000    -6.792000000    -4.155000000
H    -3.128000000    -5.920000000    -3.783000000
H    -2.593000000    -6.867000000    -4.836000000
