215
-1440.55022
C    -4.275000000     1.795000000     2.173000000
H    -3.645000000     2.671000000     2.043000000
C    -3.796000000     0.669000000     3.000000000
C    -4.575000000    -0.455000000     3.052000000
H    -4.240000000    -1.291000000     3.661000000
C    -2.376000000     0.732000000     3.683000000
O    -2.035000000     2.036000000     4.081000000
H    -1.664000000     0.413000000     2.908000000
O    -2.263000000    -0.179000000     4.850000000
C    -1.073000000    -0.949000000     4.814000000
C    -1.109000000    -2.201000000     4.257000000
H    -2.057000000    -2.714000000     4.123000000
C     0.094000000    -2.914000000     3.947000000
O    -0.022000000    -3.934000000     3.015000000
C     1.293000000    -2.339000000     4.222000000
C     2.564000000    -3.175000000     3.926000000
H     3.311000000    -3.149000000     4.722000000
C     3.132000000    -2.691000000     2.636000000
C     4.203000000    -1.776000000     2.547000000
H     4.514000000    -1.212000000     3.423000000
H     2.338000000    -4.241000000     3.862000000
C     1.284000000    -1.033000000     4.805000000
H     2.233000000    -0.533000000     4.982000000
C     0.129000000    -0.367000000     5.072000000
C     0.176000000     1.041000000     5.678000000
H     1.142000000     1.122000000     6.181000000
H    -0.673000000     1.325000000     6.303000000
C     0.281000000     1.965000000     4.454000000
C     1.568000000     2.330000000     4.073000000
H     2.425000000     1.997000000     4.653000000
C    -0.795000000     2.428000000     3.795000000
C    -0.716000000     3.385000000     2.744000000
H    -1.587000000     3.788000000     2.233000000
C     0.531000000     3.740000000     2.340000000
O     0.666000000     4.503000000     1.255000000
C     0.999000000     3.781000000     0.026000000
C     0.106000000     4.186000000    -1.205000000
C     0.245000000     3.511000000    -2.372000000
H     1.119000000     2.870000000    -2.446000000
C    -1.041000000     4.937000000    -1.021000000
H    -1.394000000     5.292000000    -0.056000000
O     2.395000000     4.020000000    -0.327000000
H     0.904000000     2.693000000     0.162000000
C     1.631000000     3.226000000     3.008000000
C     2.988000000     3.653000000     2.485000000
H     3.748000000     3.662000000     3.269000000
H     2.929000000     4.714000000     2.232000000
C     3.495000000     2.787000000     1.431000000
C     4.288000000     1.707000000     1.764000000
H     4.326000000     1.461000000     2.822000000
C     3.334000000     3.146000000     0.059000000
C     3.954000000     2.400000000    -0.944000000
H     3.823000000     2.551000000    -2.012000000
C     4.755000000     1.360000000    -0.564000000
O     5.360000000     0.564000000    -1.527000000
C     4.525000000    -0.535000000    -1.876000000
C     4.227000000    -0.710000000    -3.396000000
C     4.233000000     0.375000000    -4.266000000
H     4.408000000     1.394000000    -3.933000000
C     3.966000000    -2.011000000    -3.877000000
H     3.847000000    -2.770000000    -3.108000000
O     4.829000000    -1.724000000    -1.182000000
H     3.525000000    -0.299000000    -1.483000000
C     4.958000000     1.018000000     0.779000000
C     5.680000000    -0.263000000     1.256000000
H     5.913000000    -0.205000000     2.321000000
H     6.518000000    -0.398000000     0.568000000
C     4.676000000    -1.387000000     1.291000000
C     4.215000000    -1.960000000     0.050000000
C     3.208000000    -2.938000000     0.220000000
H     3.027000000    -3.707000000    -0.526000000
C     2.691000000    -3.294000000     1.442000000
O     1.588000000    -4.077000000     1.418000000
C     0.293000000    -3.551000000     1.710000000
H     0.215000000    -2.463000000     1.571000000
C    -0.662000000    -4.050000000     0.616000000
C    -1.936000000    -4.547000000     0.915000000
H    -2.295000000    -4.703000000     1.929000000
C    -0.267000000    -3.913000000    -0.691000000
H     0.731000000    -3.580000000    -0.965000000
C    -1.167000000    -4.190000000    -1.721000000
O    -0.894000000    -4.176000000    -3.046000000
C    -2.485000000    -4.605000000    -1.440000000
H    -3.191000000    -4.760000000    -2.252000000
C    -2.899000000    -4.782000000    -0.090000000
O    -4.211000000    -5.137000000     0.276000000
C    -5.028000000    -4.636000000     1.288000000
C    -5.244000000    -3.286000000     1.485000000
H    -4.684000000    -2.569000000     0.890000000
C    -5.631000000    -5.544000000     2.189000000
H    -5.352000000    -6.591000000     2.115000000
C    -6.601000000    -5.159000000     3.090000000
H    -7.132000000    -5.882000000     3.704000000
C    -6.967000000    -3.823000000     3.125000000
H    -7.701000000    -3.473000000     3.846000000
C    -6.226000000    -2.873000000     2.363000000
O    -6.623000000    -1.596000000     2.565000000
C    -5.842000000    -0.509000000     2.463000000
C    -6.266000000     0.550000000     1.730000000
H    -7.209000000     0.502000000     1.191000000
C    -5.491000000     1.695000000     1.510000000
O    -5.963000000     2.650000000     0.656000000
C    -5.400000000     3.889000000     0.491000000
C    -4.543000000     4.155000000    -0.537000000
H    -4.317000000     3.418000000    -1.303000000
C    -5.690000000     4.927000000     1.384000000
H    -6.504000000     4.733000000     2.077000000
C    -5.120000000     6.205000000     1.277000000
H    -5.352000000     7.038000000     1.936000000
C    -4.155000000     6.426000000     0.298000000
H    -3.763000000     7.433000000     0.179000000
C    -3.888000000     5.396000000    -0.620000000
O    -3.208000000     5.735000000    -1.744000000
C    -2.024000000     5.085000000    -2.028000000
C    -1.803000000     4.474000000    -3.285000000
H    -2.462000000     4.551000000    -4.145000000
C    -0.669000000     3.671000000    -3.490000000
O    -0.368000000     3.039000000    -4.684000000
C     0.856000000     3.204000000    -5.334000000
C     1.855000000     2.162000000    -5.404000000
H     1.560000000     1.256000000    -4.880000000
C     1.162000000     4.371000000    -5.889000000
H     0.390000000     5.137000000    -5.868000000
C     2.373000000     4.593000000    -6.580000000
H     2.593000000     5.486000000    -7.158000000
C     3.321000000     3.574000000    -6.731000000
H     4.253000000     3.648000000    -7.285000000
C     2.976000000     2.330000000    -6.166000000
O     3.906000000     1.309000000    -6.379000000
C     3.910000000     0.162000000    -5.636000000
C     3.633000000    -1.171000000    -6.142000000
H     3.437000000    -1.407000000    -7.185000000
C     3.605000000    -2.176000000    -5.218000000
O     3.142000000    -3.410000000    -5.642000000
C     2.233000000    -4.282000000    -4.966000000
C     2.442000000    -5.639000000    -5.124000000
H     3.141000000    -6.025000000    -5.862000000
C     1.673000000    -6.503000000    -4.346000000
H     1.944000000    -7.555000000    -4.394000000
C     0.629000000    -6.009000000    -3.487000000
H     0.068000000    -6.709000000    -2.873000000
C     0.236000000    -4.689000000    -3.598000000
C     1.032000000    -3.814000000    -4.364000000
H     0.714000000    -2.774000000    -4.349000000
C    -2.057000000    -0.632000000    -1.395000000
H    -3.123000000    -0.822000000    -1.480000000
C    -1.558000000    -0.209000000    -0.203000000
H    -2.204000000    -0.168000000     0.671000000
C    -0.197000000     0.013000000    -0.076000000
H     0.258000000     0.255000000     0.899000000
C     0.655000000    -0.065000000    -1.159000000
H     1.720000000     0.077000000    -0.999000000
C     0.136000000    -0.295000000    -2.427000000
H     0.808000000    -0.238000000    -3.280000000
C    -1.215000000    -0.685000000    -2.521000000
C    -1.746000000    -0.738000000    -3.900000000
O    -0.991000000    -0.761000000    -4.894000000
O    -2.886000000    -1.048000000    -4.110000000
O    -4.825000000    -2.633000000    -3.758000000
H    -4.538000000    -3.529000000    -3.932000000
H    -4.014000000    -2.128000000    -3.704000000
O    -6.920000000    -2.333000000    -2.195000000
H    -7.021000000    -1.625000000    -1.559000000
H    -6.054000000    -2.189000000    -2.578000000
O    -2.629000000    -3.459000000    -9.064000000
H    -2.097000000    -3.837000000    -8.363000000
H    -3.247000000    -4.153000000    -9.296000000
O    -4.111000000    -1.430000000    -6.464000000
H    -3.283000000    -1.666000000    -6.882000000
H    -3.875000000    -1.235000000    -5.557000000
O    -3.420000000    -0.021000000    -9.231000000
H    -3.118000000    -0.778000000    -9.733000000
H    -2.719000000     0.143000000    -8.601000000
O    -1.793000000     1.121000000    -6.878000000
H    -1.044000000     1.057000000    -7.470000000
H    -1.544000000     0.593000000    -6.119000000
O    -7.333000000     0.218000000    -1.475000000
H    -7.394000000     1.039000000    -0.985000000
H    -7.285000000     0.490000000    -2.391000000
O    -6.652000000     1.206000000    -3.873000000
H    -7.076000000     0.820000000    -4.640000000
H    -5.799000000     1.500000000    -4.193000000
O     0.260000000    -3.674000000    -7.373000000
H     0.076000000    -4.611000000    -7.431000000
H    -0.428000000    -3.330000000    -6.803000000
O    -1.792000000    -2.974000000    -6.108000000
H    -1.664000000    -2.142000000    -5.652000000
H    -2.266000000    -3.520000000    -5.481000000
O    -6.161000000    -0.094000000    -7.826000000
H    -5.305000000    -0.178000000    -7.407000000
H    -5.970000000     0.272000000    -8.689000000
O    -3.834000000     1.596000000    -4.607000000
H    -3.373000000     0.950000000    -4.072000000
H    -3.206000000     1.834000000    -5.289000000
O    -5.355000000    -3.334000000    -7.877000000
H    -5.204000000    -4.104000000    -7.327000000
H    -4.861000000    -2.634000000    -7.449000000
O     0.799000000     1.343000000    -8.946000000
H     1.519000000     0.929000000    -9.421000000
H     0.701000000     0.816000000    -8.152000000
O     0.258000000    -0.738000000    -7.232000000
H    -0.052000000    -0.721000000    -6.327000000
H     0.477000000    -1.656000000    -7.393000000
O    -2.728000000     3.617000000    -8.020000000
H    -1.879000000     3.781000000    -8.431000000
H    -2.768000000     2.665000000    -7.927000000
O    -3.341000000    -4.947000000    -4.751000000
H    -2.600000000    -5.538000000    -4.890000000
H    -4.078000000    -5.528000000    -4.562000000
O    -7.463000000    -2.008000000    -5.636000000
H    -7.137000000    -1.715000000    -6.487000000
H    -6.712000000    -1.921000000    -5.049000000
O    -5.302000000     4.302000000    -3.749000000
H    -5.708000000     4.357000000    -4.614000000
H    -4.682000000     3.576000000    -3.821000000
