215
-1451.64335
C     2.698000000    -0.891000000    -4.271000000
H     2.451000000    -1.947000000    -4.187000000
C     3.443000000    -0.250000000    -3.273000000
C     3.645000000     1.141000000    -3.305000000
H     4.016000000     1.555000000    -2.371000000
C     3.740000000    -1.052000000    -2.034000000
O     3.855000000    -2.475000000    -2.371000000
H     2.750000000    -0.974000000    -1.562000000
O     4.857000000    -0.552000000    -1.190000000
C     4.591000000    -0.434000000     0.198000000
C     4.402000000     0.813000000     0.710000000
H     4.470000000     1.701000000     0.086000000
C     4.000000000     0.899000000     2.032000000
O     3.764000000     2.197000000     2.384000000
C     3.906000000    -0.182000000     2.864000000
C     3.568000000    -0.088000000     4.311000000
H     3.819000000    -1.028000000     4.806000000
C     2.052000000     0.085000000     4.478000000
C     1.314000000    -1.084000000     4.642000000
H     1.720000000    -2.092000000     4.675000000
H     4.191000000     0.657000000     4.811000000
C     4.280000000    -1.426000000     2.315000000
H     4.204000000    -2.230000000     3.041000000
C     4.620000000    -1.545000000     0.987000000
C     4.817000000    -2.981000000     0.388000000
H     5.129000000    -3.604000000     1.229000000
H     5.667000000    -3.083000000    -0.289000000
C     3.465000000    -3.546000000    -0.206000000
C     2.537000000    -4.132000000     0.657000000
H     2.842000000    -4.220000000     1.697000000
C     3.090000000    -3.369000000    -1.578000000
C     1.800000000    -3.732000000    -1.963000000
H     1.524000000    -3.461000000    -2.979000000
C     0.943000000    -4.346000000    -1.080000000
O    -0.362000000    -4.601000000    -1.600000000
C    -1.445000000    -3.721000000    -1.147000000
C    -2.385000000    -3.331000000    -2.325000000
C    -3.676000000    -2.908000000    -2.083000000
H    -4.054000000    -2.825000000    -1.067000000
C    -1.915000000    -3.415000000    -3.686000000
H    -0.858000000    -3.516000000    -3.919000000
O    -2.120000000    -4.415000000    -0.125000000
H    -1.091000000    -2.790000000    -0.680000000
C     1.318000000    -4.605000000     0.252000000
C     0.381000000    -5.373000000     1.214000000
H     1.004000000    -5.764000000     2.021000000
H    -0.153000000    -6.181000000     0.710000000
C    -0.647000000    -4.413000000     1.807000000
C    -0.376000000    -3.895000000     3.098000000
H     0.521000000    -4.152000000     3.655000000
C    -1.835000000    -4.021000000     1.133000000
C    -2.724000000    -3.157000000     1.719000000
H    -3.666000000    -2.954000000     1.217000000
C    -2.414000000    -2.576000000     2.993000000
O    -3.166000000    -1.603000000     3.556000000
C    -2.724000000    -0.204000000     3.380000000
C    -3.809000000     0.739000000     2.810000000
C    -4.804000000     0.237000000     1.911000000
H    -4.747000000    -0.808000000     1.619000000
C    -3.728000000     2.096000000     2.979000000
H    -2.902000000     2.582000000     3.492000000
O    -2.076000000     0.325000000     4.598000000
H    -1.944000000    -0.226000000     2.605000000
C    -1.255000000    -2.978000000     3.674000000
C    -0.866000000    -2.287000000     4.987000000
H    -0.279000000    -3.037000000     5.521000000
H    -1.752000000    -2.108000000     5.600000000
C    -0.057000000    -1.021000000     4.751000000
C    -0.691000000     0.196000000     4.635000000
C     0.018000000     1.351000000     4.386000000
H    -0.525000000     2.276000000     4.215000000
C     1.376000000     1.310000000     4.270000000
O     2.021000000     2.509000000     3.947000000
C     2.364000000     2.603000000     2.551000000
H     1.727000000     1.878000000     2.023000000
C     2.019000000     3.976000000     1.938000000
C     2.771000000     4.538000000     0.904000000
H     3.616000000     3.965000000     0.529000000
C     0.970000000     4.790000000     2.398000000
H     0.357000000     4.394000000     3.204000000
C     0.699000000     6.077000000     1.887000000
O    -0.343000000     6.787000000     2.453000000
C     1.580000000     6.639000000     0.914000000
H     1.359000000     7.625000000     0.513000000
C     2.615000000     5.876000000     0.408000000
O     3.451000000     6.315000000    -0.542000000
C     4.103000000     5.548000000    -1.488000000
C     3.350000000     4.763000000    -2.310000000
H     2.269000000     4.715000000    -2.202000000
C     5.469000000     5.731000000    -1.687000000
H     5.987000000     6.332000000    -0.944000000
C     6.089000000     5.022000000    -2.669000000
H     7.173000000     4.950000000    -2.702000000
C     5.354000000     4.261000000    -3.574000000
H     5.874000000     3.701000000    -4.348000000
C     3.981000000     4.099000000    -3.370000000
O     3.204000000     3.350000000    -4.317000000
C     3.257000000     1.957000000    -4.385000000
C     2.664000000     1.276000000    -5.408000000
H     2.469000000     1.853000000    -6.308000000
C     2.412000000    -0.106000000    -5.399000000
O     1.981000000    -0.771000000    -6.507000000
C     1.242000000    -1.984000000    -6.481000000
C    -0.097000000    -2.053000000    -6.102000000
H    -0.636000000    -1.146000000    -5.837000000
C     1.876000000    -3.148000000    -6.938000000
H     2.882000000    -3.060000000    -7.340000000
C     1.150000000    -4.361000000    -7.080000000
H     1.588000000    -5.275000000    -7.473000000
C    -0.247000000    -4.421000000    -6.739000000
H    -0.898000000    -5.287000000    -6.828000000
C    -0.846000000    -3.204000000    -6.275000000
O    -2.160000000    -3.150000000    -6.035000000
C    -2.688000000    -3.119000000    -4.774000000
C    -4.014000000    -2.699000000    -4.561000000
H    -4.652000000    -2.447000000    -5.404000000
C    -4.507000000    -2.737000000    -3.251000000
O    -5.900000000    -2.365000000    -3.166000000
C    -6.512000000    -2.117000000    -1.943000000
C    -6.326000000    -0.815000000    -1.443000000
H    -5.794000000    -0.050000000    -2.002000000
C    -7.246000000    -2.998000000    -1.250000000
H    -7.432000000    -3.987000000    -1.661000000
C    -7.696000000    -2.662000000     0.005000000
H    -8.223000000    -3.378000000     0.630000000
C    -7.522000000    -1.413000000     0.553000000
H    -7.730000000    -1.124000000     1.580000000
C    -6.793000000    -0.438000000    -0.155000000
O    -6.533000000     0.813000000     0.381000000
C    -5.621000000     1.157000000     1.301000000
C    -5.608000000     2.512000000     1.497000000
H    -6.368000000     3.143000000     1.044000000
C    -4.702000000     2.944000000     2.483000000
O    -4.546000000     4.314000000     2.492000000
C    -3.529000000     4.965000000     3.061000000
C    -3.623000000     5.204000000     4.439000000
H    -4.420000000     4.706000000     4.985000000
C    -2.671000000     5.961000000     5.091000000
H    -2.901000000     6.128000000     6.140000000
C    -1.601000000     6.439000000     4.339000000
H    -0.887000000     7.141000000     4.763000000
C    -1.484000000     6.189000000     3.006000000
C    -2.473000000     5.383000000     2.315000000
H    -2.370000000     5.229000000     1.244000000
C    -1.674000000     0.070000000    -2.810000000
H    -1.873000000    -0.142000000    -3.857000000
C    -0.550000000    -0.547000000    -2.325000000
H    -0.040000000    -1.251000000    -2.977000000
C    -0.154000000    -0.477000000    -0.990000000
H     0.674000000    -1.092000000    -0.584000000
C    -0.854000000     0.363000000    -0.185000000
H    -0.483000000     0.533000000     0.823000000
C    -1.923000000     1.168000000    -0.690000000
H    -2.479000000     1.779000000     0.017000000
C    -2.340000000     1.030000000    -2.019000000
C    -3.519000000     1.899000000    -2.458000000
O    -3.967000000     2.751000000    -1.698000000
O    -3.779000000     1.952000000    -3.633000000
O    -6.899000000     1.601000000    -4.320000000
H    -6.147000000     1.440000000    -4.889000000
H    -6.571000000     2.204000000    -3.653000000
O    -0.268000000     7.283000000    -2.023000000
H    -0.415000000     6.343000000    -1.914000000
H    -1.079000000     7.689000000    -1.717000000
O    -5.249000000    -1.279000000    -7.430000000
H    -4.559000000    -0.864000000    -6.913000000
H    -6.023000000    -0.739000000    -7.276000000
O    -4.021000000     1.813000000    -8.585000000
H    -4.779000000     2.392000000    -8.667000000
H    -4.034000000     1.530000000    -7.670000000
O    -7.634000000     5.010000000    -4.473000000
H    -6.721000000     4.784000000    -4.296000000
H    -7.623000000     5.371000000    -5.360000000
O    -4.517000000     4.333000000    -4.411000000
H    -4.308000000     3.422000000    -4.618000000
H    -4.560000000     4.358000000    -3.455000000
O    -9.096000000     0.658000000    -3.262000000
H    -9.641000000     0.757000000    -4.042000000
H    -8.286000000     1.121000000    -3.475000000
O    -6.734000000     3.024000000    -1.737000000
H    -7.197000000     2.267000000    -1.377000000
H    -5.818000000     2.877000000    -1.502000000
O    -4.307000000     6.608000000    -5.873000000
H    -3.374000000     6.713000000    -5.690000000
H    -4.529000000     5.752000000    -5.505000000
O    -1.635000000     1.204000000    -6.849000000
H    -1.724000000     1.764000000    -7.619000000
H    -1.254000000     1.774000000    -6.181000000
O    -1.539000000     2.979000000    -4.692000000
H    -2.345000000     2.604000000    -4.337000000
H    -1.297000000     3.661000000    -4.066000000
O    -4.137000000     5.218000000    -0.854000000
H    -4.155000000     4.266000000    -0.947000000
H    -4.851000000     5.412000000    -0.246000000
O    -1.616000000     4.924000000    -1.981000000
H    -2.526000000     4.687000000    -1.798000000
H    -1.151000000     4.087000000    -2.002000000
O    -8.247000000    -1.600000000    -5.085000000
H    -7.801000000    -2.447000000    -5.120000000
H    -7.677000000    -1.052000000    -4.547000000
O    -7.541000000     5.691000000    -0.897000000
H    -7.195000000     4.847000000    -1.187000000
H    -7.523000000     5.642000000     0.059000000
O     0.194000000     2.949000000    -2.390000000
H     0.239000000     2.003000000    -2.523000000
H     0.816000000     3.309000000    -3.023000000
O    -4.144000000     0.593000000    -5.908000000
H    -3.209000000     0.500000000    -6.092000000
H    -4.179000000     0.951000000    -5.021000000
O    -1.744000000     4.633000000    -6.708000000
H    -1.964000000     5.511000000    -6.396000000
H    -1.544000000     4.139000000    -5.913000000
O    -3.490000000     7.890000000    -2.076000000
H    -3.284000000     8.256000000    -1.215000000
H    -3.118000000     7.008000000    -2.056000000
