215
-1457.99745
C    -3.293000000     3.961000000     2.331000000
H    -2.603000000     4.796000000     2.427000000
C    -3.139000000     2.651000000     2.821000000
C    -4.120000000     1.658000000     2.661000000
H    -3.833000000     0.631000000     2.870000000
C    -1.787000000     2.207000000     3.370000000
O    -1.021000000     3.353000000     3.835000000
H    -1.227000000     1.738000000     2.548000000
O    -1.887000000     1.224000000     4.454000000
C    -1.049000000     0.131000000     4.518000000
C    -1.442000000    -1.143000000     3.957000000
H    -2.449000000    -1.319000000     3.589000000
C    -0.513000000    -2.195000000     3.854000000
O    -1.017000000    -3.396000000     3.352000000
C     0.785000000    -2.061000000     4.323000000
C     1.790000000    -3.224000000     4.357000000
H     2.406000000    -2.984000000     5.226000000
C     2.441000000    -3.333000000     2.962000000
C     3.556000000    -2.582000000     2.610000000
H     4.117000000    -2.021000000     3.353000000
H     1.278000000    -4.160000000     4.589000000
C     1.207000000    -0.812000000     4.806000000
H     2.186000000    -0.781000000     5.277000000
C     0.321000000     0.261000000     4.947000000
C     0.950000000     1.624000000     5.312000000
H     1.757000000     1.523000000     6.041000000
H     0.062000000     2.029000000     5.800000000
C     1.376000000     2.554000000     4.143000000
C     2.618000000     2.533000000     3.568000000
H     3.418000000     1.947000000     4.015000000
C     0.383000000     3.382000000     3.496000000
C     0.736000000     4.138000000     2.339000000
H    -0.002000000     4.693000000     1.764000000
C     2.004000000     4.088000000     1.846000000
O     2.084000000     4.554000000     0.544000000
C     2.013000000     3.523000000    -0.486000000
C     1.148000000     4.018000000    -1.629000000
C     1.175000000     3.355000000    -2.838000000
H     1.851000000     2.508000000    -2.921000000
C     0.274000000     5.122000000    -1.537000000
H     0.220000000     5.713000000    -0.626000000
O     3.349000000     3.220000000    -0.970000000
H     1.608000000     2.614000000    -0.017000000
C     2.972000000     3.197000000     2.400000000
C     4.313000000     3.088000000     1.762000000
H     5.155000000     3.063000000     2.457000000
H     4.542000000     3.983000000     1.180000000
C     4.374000000     1.932000000     0.745000000
C     4.937000000     0.727000000     1.179000000
H     5.384000000     0.637000000     2.166000000
C     3.900000000     2.075000000    -0.531000000
C     3.919000000     1.020000000    -1.402000000
H     3.557000000     1.161000000    -2.418000000
C     4.294000000    -0.214000000    -0.940000000
O     4.270000000    -1.268000000    -1.799000000
C     3.163000000    -2.129000000    -1.738000000
C     2.734000000    -2.546000000    -3.144000000
C     2.574000000    -1.596000000    -4.225000000
H     3.088000000    -0.651000000    -4.072000000
C     2.237000000    -3.824000000    -3.383000000
H     2.185000000    -4.511000000    -2.543000000
O     3.548000000    -3.381000000    -0.981000000
H     2.376000000    -1.570000000    -1.211000000
C     4.821000000    -0.394000000     0.361000000
C     5.207000000    -1.809000000     0.908000000
H     5.815000000    -1.698000000     1.809000000
H     5.916000000    -2.389000000     0.314000000
C     3.998000000    -2.609000000     1.267000000
C     3.284000000    -3.327000000     0.341000000
C     2.168000000    -4.054000000     0.702000000
H     1.647000000    -4.707000000     0.007000000
C     1.767000000    -4.093000000     1.999000000
O     0.473000000    -4.575000000     2.251000000
C    -0.657000000    -3.675000000     2.044000000
H    -0.211000000    -2.732000000     1.694000000
C    -1.733000000    -4.117000000     1.145000000
C    -3.003000000    -3.631000000     1.384000000
H    -3.175000000    -2.948000000     2.212000000
C    -1.454000000    -4.859000000    -0.011000000
H    -0.406000000    -5.044000000    -0.233000000
C    -2.528000000    -5.093000000    -0.866000000
O    -2.411000000    -5.536000000    -2.155000000
C    -3.814000000    -4.791000000    -0.544000000
H    -4.554000000    -5.063000000    -1.291000000
C    -4.093000000    -4.079000000     0.598000000
O    -5.373000000    -3.747000000     1.008000000
C    -5.754000000    -2.654000000     1.805000000
C    -5.758000000    -1.348000000     1.356000000
H    -5.611000000    -1.107000000     0.306000000
C    -6.099000000    -2.925000000     3.126000000
H    -6.046000000    -3.972000000     3.411000000
C    -6.485000000    -1.917000000     3.973000000
H    -6.841000000    -2.210000000     4.958000000
C    -6.386000000    -0.564000000     3.537000000
H    -6.636000000     0.253000000     4.209000000
C    -6.063000000    -0.290000000     2.249000000
O    -6.176000000     0.971000000     1.773000000
C    -5.220000000     1.964000000     1.948000000
C    -5.415000000     3.247000000     1.390000000
H    -6.265000000     3.456000000     0.745000000
C    -4.458000000     4.209000000     1.550000000
O    -4.784000000     5.474000000     1.129000000
C    -3.807000000     6.324000000     0.576000000
C    -3.204000000     5.896000000    -0.625000000
H    -3.506000000     4.960000000    -1.087000000
C    -3.564000000     7.619000000     1.133000000
H    -4.093000000     7.889000000     2.043000000
C    -2.621000000     8.424000000     0.507000000
H    -2.321000000     9.407000000     0.860000000
C    -1.955000000     8.037000000    -0.653000000
H    -1.210000000     8.656000000    -1.147000000
C    -2.237000000     6.745000000    -1.216000000
O    -1.619000000     6.405000000    -2.373000000
C    -0.722000000     5.401000000    -2.494000000
C    -0.721000000     4.563000000    -3.644000000
H    -1.523000000     4.685000000    -4.369000000
C     0.272000000     3.542000000    -3.802000000
O     0.229000000     2.683000000    -4.927000000
C     1.214000000     2.186000000    -5.704000000
C     1.237000000     0.818000000    -5.811000000
H     0.505000000     0.196000000    -5.301000000
C     2.158000000     2.956000000    -6.384000000
H     2.218000000     4.041000000    -6.349000000
C     3.133000000     2.370000000    -7.212000000
H     3.827000000     3.027000000    -7.730000000
C     3.146000000     0.972000000    -7.281000000
H     3.877000000     0.562000000    -7.973000000
C     2.273000000     0.197000000    -6.537000000
O     2.420000000    -1.208000000    -6.573000000
C     2.278000000    -2.019000000    -5.488000000
C     1.977000000    -3.369000000    -5.719000000
H     1.711000000    -3.686000000    -6.724000000
C     1.900000000    -4.171000000    -4.636000000
O     1.588000000    -5.500000000    -4.817000000
C     0.736000000    -6.204000000    -3.969000000
C     0.881000000    -7.573000000    -3.708000000
H     1.755000000    -8.084000000    -4.105000000
C    -0.066000000    -8.259000000    -2.924000000
H     0.118000000    -9.328000000    -2.853000000
C    -1.151000000    -7.565000000    -2.352000000
H    -1.844000000    -7.998000000    -1.635000000
C    -1.310000000    -6.212000000    -2.702000000
C    -0.366000000    -5.507000000    -3.432000000
H    -0.533000000    -4.453000000    -3.634000000
C    -1.913000000     1.327000000    -1.338000000
H    -2.638000000     2.001000000    -1.786000000
C    -1.106000000     1.737000000    -0.298000000
H    -0.851000000     2.745000000     0.017000000
C    -0.247000000     0.833000000     0.335000000
H     0.566000000     1.185000000     1.025000000
C    -0.303000000    -0.503000000    -0.001000000
H     0.351000000    -1.214000000     0.498000000
C    -1.262000000    -0.983000000    -0.910000000
H    -1.302000000    -2.041000000    -1.157000000
C    -2.083000000    -0.059000000    -1.620000000
C    -2.933000000    -0.432000000    -2.797000000
O    -3.218000000    -1.595000000    -3.025000000
O    -3.541000000     0.379000000    -3.435000000
O    -8.398000000    -2.997000000     0.244000000
H    -7.507000000    -2.740000000     0.484000000
H    -8.288000000    -3.540000000    -0.537000000
O    -2.252000000     1.465000000    -5.373000000
H    -2.877000000     1.226000000    -4.688000000
H    -1.543000000     1.907000000    -4.907000000
O    -6.478000000     4.326000000    -2.041000000
H    -6.819000000     3.524000000    -1.644000000
H    -5.982000000     4.024000000    -2.802000000
O    -1.434000000     2.214000000    -7.909000000
H    -1.432000000     1.284000000    -8.134000000
H    -1.606000000     2.233000000    -6.968000000
O    -5.622000000    -3.289000000    -3.108000000
H    -6.127000000    -2.841000000    -3.786000000
H    -4.836000000    -2.753000000    -3.001000000
O     0.159000000    -1.641000000    -8.287000000
H     1.081000000    -1.699000000    -8.039000000
H    -0.305000000    -1.514000000    -7.459000000
O    -3.052000000    -3.750000000    -4.401000000
H    -3.048000000    -2.980000000    -3.833000000
H    -3.328000000    -4.468000000    -3.831000000
O    -7.877000000    -4.356000000    -1.959000000
H    -8.068000000    -5.175000000    -2.416000000
H    -7.143000000    -3.977000000    -2.442000000
O    -7.297000000    -2.502000000    -4.919000000
H    -8.253000000    -2.540000000    -4.906000000
H    -7.093000000    -1.839000000    -5.579000000
O    -9.238000000     2.403000000    -3.633000000
H    -9.186000000     2.332000000    -2.680000000
H    -8.567000000     1.801000000    -3.955000000
O    -5.984000000    -0.026000000    -2.301000000
H    -6.481000000    -0.295000000    -3.075000000
H    -5.093000000     0.106000000    -2.623000000
O    -3.296000000    -4.693000000    -7.381000000
H    -3.313000000    -4.574000000    -6.431000000
H    -3.808000000    -3.960000000    -7.723000000
O    -7.587000000     2.058000000    -1.159000000
H    -7.143000000     1.215000000    -1.260000000
H    -7.794000000     2.110000000    -0.226000000
O    -7.743000000     0.798000000    -5.125000000
H    -6.928000000     0.307000000    -5.224000000
H    -8.322000000     0.439000000    -5.798000000
O    -4.923000000    -2.279000000    -7.395000000
H    -5.555000000    -1.741000000    -7.871000000
H    -4.854000000    -1.864000000    -6.535000000
O    -4.837000000     1.336000000    -7.327000000
H    -5.295000000     1.229000000    -8.160000000
H    -4.688000000     2.279000000    -7.254000000
O    -1.276000000    -1.638000000    -6.001000000
H    -1.669000000    -2.426000000    -5.626000000
H    -1.905000000    -0.942000000    -5.810000000
O    -5.353000000    -0.417000000    -5.461000000
H    -4.815000000    -0.150000000    -4.715000000
H    -4.979000000     0.054000000    -6.206000000
O    -5.898000000    -4.905000000    -5.369000000
H    -5.932000000    -4.153000000    -5.960000000
H    -5.496000000    -4.564000000    -4.570000000
