215
-1460.16106
C    -2.775000000     3.808000000     2.488000000
H    -1.964000000     4.532000000     2.464000000
C    -2.676000000     2.492000000     3.087000000
C    -3.869000000     1.703000000     3.308000000
H    -3.818000000     0.785000000     3.888000000
C    -1.368000000     1.990000000     3.520000000
O    -0.483000000     3.054000000     3.834000000
H    -1.013000000     1.301000000     2.739000000
O    -1.444000000     1.267000000     4.721000000
C    -0.767000000     0.069000000     4.846000000
C    -1.377000000    -1.130000000     4.397000000
H    -2.430000000    -1.131000000     4.128000000
C    -0.715000000    -2.286000000     4.170000000
O    -1.409000000    -3.333000000     3.510000000
C     0.657000000    -2.365000000     4.307000000
C     1.456000000    -3.613000000     3.986000000
H     2.296000000    -3.641000000     4.683000000
C     1.925000000    -3.611000000     2.571000000
C     3.153000000    -3.003000000     2.171000000
H     3.685000000    -2.558000000     3.008000000
H     0.872000000    -4.513000000     4.192000000
C     1.368000000    -1.224000000     4.786000000
H     2.438000000    -1.257000000     4.971000000
C     0.613000000    -0.016000000     4.915000000
C     1.344000000     1.252000000     5.245000000
H     2.249000000     1.106000000     5.839000000
H     0.617000000     1.856000000     5.791000000
C     1.754000000     2.146000000     3.992000000
C     2.997000000     2.027000000     3.465000000
H     3.691000000     1.295000000     3.869000000
C     0.819000000     2.937000000     3.377000000
C     1.184000000     3.687000000     2.275000000
H     0.491000000     4.318000000     1.724000000
C     2.414000000     3.496000000     1.730000000
O     2.667000000     3.966000000     0.481000000
C     2.375000000     3.169000000    -0.636000000
C     1.457000000     3.777000000    -1.707000000
C     1.301000000     3.192000000    -2.965000000
H     1.806000000     2.250000000    -3.165000000
C     0.792000000     4.983000000    -1.384000000
H     1.047000000     5.488000000    -0.456000000
O     3.665000000     2.771000000    -1.221000000
H     1.865000000     2.284000000    -0.226000000
C     3.405000000     2.682000000     2.303000000
C     4.697000000     2.349000000     1.672000000
H     5.553000000     2.166000000     2.325000000
H     5.041000000     3.168000000     1.037000000
C     4.525000000     1.299000000     0.587000000
C     4.890000000     0.024000000     0.965000000
H     5.203000000    -0.238000000     1.973000000
C     4.093000000     1.490000000    -0.763000000
C     4.167000000     0.430000000    -1.672000000
H     3.881000000     0.609000000    -2.706000000
C     4.607000000    -0.852000000    -1.334000000
O     4.442000000    -1.843000000    -2.279000000
C     3.114000000    -2.474000000    -2.206000000
C     2.655000000    -2.773000000    -3.617000000
C     2.662000000    -1.721000000    -4.513000000
H     3.235000000    -0.817000000    -4.322000000
C     1.891000000    -3.871000000    -3.937000000
H     1.869000000    -4.748000000    -3.296000000
O     3.155000000    -3.627000000    -1.394000000
H     2.417000000    -1.742000000    -1.773000000
C     4.809000000    -1.078000000     0.062000000
C     4.967000000    -2.496000000     0.559000000
H     5.552000000    -2.439000000     1.479000000
H     5.472000000    -3.103000000    -0.195000000
C     3.568000000    -2.970000000     0.870000000
C     2.787000000    -3.522000000    -0.123000000
C     1.584000000    -4.086000000     0.276000000
H     0.875000000    -4.543000000    -0.410000000
C     1.158000000    -4.115000000     1.547000000
O    -0.140000000    -4.514000000     1.902000000
C    -1.137000000    -3.455000000     2.100000000
H    -0.736000000    -2.477000000     1.798000000
C    -2.284000000    -3.703000000     1.204000000
C    -3.448000000    -3.046000000     1.396000000
H    -3.522000000    -2.269000000     2.153000000
C    -2.182000000    -4.496000000     0.033000000
H    -1.235000000    -4.973000000    -0.205000000
C    -3.252000000    -4.626000000    -0.863000000
O    -3.113000000    -5.325000000    -2.049000000
C    -4.453000000    -3.985000000    -0.558000000
H    -5.334000000    -4.132000000    -1.179000000
C    -4.491000000    -3.160000000     0.493000000
O    -5.624000000    -2.394000000     0.582000000
C    -6.086000000    -1.762000000     1.700000000
C    -5.992000000    -0.440000000     1.844000000
H    -5.550000000     0.064000000     0.989000000
C    -6.826000000    -2.445000000     2.648000000
H    -7.027000000    -3.509000000     2.545000000
C    -7.369000000    -1.746000000     3.805000000
H    -7.983000000    -2.220000000     4.567000000
C    -7.140000000    -0.388000000     3.967000000
H    -7.485000000     0.114000000     4.867000000
C    -6.451000000     0.251000000     2.959000000
O    -6.256000000     1.614000000     3.085000000
C    -5.092000000     2.233000000     2.813000000
C    -5.144000000     3.427000000     2.118000000
H    -6.098000000     3.832000000     1.789000000
C    -3.974000000     4.199000000     1.881000000
O    -3.966000000     5.578000000     1.623000000
C    -2.980000000     6.337000000     1.031000000
C    -2.280000000     5.940000000    -0.140000000
H    -2.482000000     4.934000000    -0.499000000
C    -2.634000000     7.563000000     1.523000000
H    -3.209000000     7.972000000     2.349000000
C    -1.705000000     8.410000000     0.967000000
H    -1.459000000     9.384000000     1.383000000
C    -1.147000000     8.086000000    -0.270000000
H    -0.655000000     8.862000000    -0.851000000
C    -1.459000000     6.820000000    -0.825000000
O    -0.880000000     6.596000000    -2.054000000
C    -0.111000000     5.541000000    -2.315000000
C    -0.266000000     4.903000000    -3.613000000
H    -1.032000000     5.276000000    -4.288000000
C     0.469000000     3.760000000    -3.927000000
O     0.320000000     3.146000000    -5.180000000
C     1.381000000     2.412000000    -5.685000000
C     1.286000000     1.041000000    -5.916000000
H     0.401000000     0.521000000    -5.558000000
C     2.462000000     3.147000000    -6.155000000
H     2.541000000     4.205000000    -5.915000000
C     3.514000000     2.483000000    -6.866000000
H     4.348000000     3.043000000    -7.282000000
C     3.458000000     1.076000000    -7.054000000
H     4.248000000     0.531000000    -7.565000000
C     2.358000000     0.359000000    -6.512000000
O     2.403000000    -1.011000000    -6.722000000
C     2.071000000    -1.917000000    -5.780000000
C     1.261000000    -2.999000000    -6.083000000
H     0.817000000    -3.140000000    -7.065000000
C     1.154000000    -4.019000000    -5.119000000
O     0.314000000    -5.117000000    -5.382000000
C    -0.280000000    -5.746000000    -4.334000000
C     0.433000000    -6.798000000    -3.718000000
H     1.423000000    -7.176000000    -3.960000000
C    -0.128000000    -7.440000000    -2.615000000
H     0.386000000    -8.315000000    -2.226000000
C    -1.242000000    -6.837000000    -1.976000000
H    -1.641000000    -7.296000000    -1.075000000
C    -1.913000000    -5.758000000    -2.560000000
C    -1.390000000    -5.207000000    -3.774000000
H    -1.914000000    -4.344000000    -4.177000000
C    -1.286000000     1.618000000    -0.278000000
H    -1.428000000     2.643000000     0.056000000
C    -0.295000000     0.898000000     0.345000000
H     0.401000000     1.355000000     1.043000000
C    -0.052000000    -0.411000000    -0.057000000
H     0.726000000    -1.006000000     0.432000000
C    -0.937000000    -0.991000000    -0.919000000
H    -0.663000000    -1.952000000    -1.348000000
C    -1.940000000    -0.267000000    -1.579000000
H    -2.497000000    -0.677000000    -2.418000000
C    -2.168000000     1.050000000    -1.219000000
C    -3.126000000     1.938000000    -2.036000000
O    -3.771000000     1.438000000    -2.901000000
O    -3.414000000     3.030000000    -1.629000000
O    -8.173000000    -1.300000000    -1.488000000
H    -8.517000000    -1.101000000    -0.617000000
H    -7.227000000    -1.183000000    -1.404000000
O    -3.797000000     4.324000000    -4.055000000
H    -3.759000000     3.503000000    -3.564000000
H    -4.730000000     4.528000000    -4.110000000
O    -2.661000000     3.777000000    -6.700000000
H    -2.856000000     4.159000000    -5.844000000
H    -2.512000000     2.849000000    -6.520000000
O    -3.940000000     6.746000000    -2.708000000
H    -3.112000000     6.978000000    -2.288000000
H    -3.717000000     6.020000000    -3.291000000
O    -4.198000000     0.431000000    -8.891000000
H    -3.917000000     0.456000000    -7.976000000
H    -3.618000000     1.048000000    -9.337000000
O    -7.298000000    -1.697000000    -5.962000000
H    -6.902000000    -1.812000000    -6.825000000
H    -7.326000000    -0.749000000    -5.834000000
O    -5.561000000    -0.572000000    -2.177000000
H    -6.231000000     0.005000000    -1.812000000
H    -4.798000000    -0.007000000    -2.299000000
O    -8.716000000     0.601000000    -5.168000000
H    -8.030000000     0.937000000    -4.591000000
H    -9.391000000     0.276000000    -4.572000000
O    -6.218000000     2.056000000    -4.030000000
H    -5.584000000     1.822000000    -3.352000000
H    -6.622000000     2.864000000    -3.712000000
O    -6.507000000    -2.799000000    -3.576000000
H    -6.092000000    -2.053000000    -3.143000000
H    -6.964000000    -2.418000000    -4.325000000
O    -5.833000000     3.898000000    -1.252000000
H    -5.680000000     4.600000000    -0.619000000
H    -4.980000000     3.474000000    -1.350000000
O    -1.298000000    -0.587000000    -7.585000000
H    -1.287000000     0.290000000    -7.970000000
H    -1.463000000    -0.438000000    -6.654000000
O    -3.083000000    -1.947000000    -4.729000000
H    -3.369000000    -1.264000000    -4.121000000
H    -3.382000000    -1.643000000    -5.586000000
O    -7.222000000     1.400000000    -1.173000000
H    -8.154000000     1.480000000    -0.968000000
H    -6.867000000     2.275000000    -1.016000000
O    -6.038000000     6.714000000    -1.182000000
H    -5.979000000     7.446000000    -0.568000000
H    -5.207000000     6.732000000    -1.657000000
O    -6.258000000     1.946000000    -6.670000000
H    -6.031000000     1.890000000    -5.742000000
H    -7.197000000     1.760000000    -6.699000000
O    -5.306000000     4.264000000    -7.672000000
H    -5.757000000     3.427000000    -7.564000000
H    -4.408000000     4.090000000    -7.390000000
O    -2.690000000     1.304000000    -5.424000000
H    -3.200000000     1.264000000    -4.615000000
H    -1.782000000     1.197000000    -5.141000000
O    -6.618000000     4.667000000    -3.863000000
H    -7.336000000     5.274000000    -4.045000000
H    -6.262000000     4.961000000    -3.025000000
