215
-1452.94973
C     2.541000000    -0.812000000    -4.473000000
H     2.062000000    -1.780000000    -4.349000000
C     3.394000000    -0.479000000    -3.420000000
C     4.048000000     0.782000000    -3.499000000
H     4.748000000     0.958000000    -2.687000000
C     3.412000000    -1.352000000    -2.131000000
O     3.343000000    -2.713000000    -2.469000000
H     2.519000000    -1.074000000    -1.552000000
O     4.603000000    -1.181000000    -1.344000000
C     4.327000000    -1.014000000    -0.025000000
C     4.253000000     0.294000000     0.494000000
H     4.268000000     1.091000000    -0.245000000
C     3.999000000     0.435000000     1.861000000
O     3.749000000     1.729000000     2.339000000
C     3.737000000    -0.674000000     2.668000000
C     3.477000000    -0.512000000     4.117000000
H     3.921000000    -1.352000000     4.655000000
C     1.985000000    -0.351000000     4.430000000
C     1.237000000    -1.483000000     4.666000000
H     1.633000000    -2.489000000     4.778000000
H     4.058000000     0.339000000     4.479000000
C     3.854000000    -1.990000000     2.124000000
H     3.654000000    -2.817000000     2.801000000
C     4.173000000    -2.195000000     0.805000000
C     4.354000000    -3.571000000     0.147000000
H     4.797000000    -4.233000000     0.894000000
H     5.056000000    -3.492000000    -0.686000000
C     2.992000000    -4.021000000    -0.438000000
C     2.053000000    -4.666000000     0.360000000
H     2.408000000    -4.872000000     1.366000000
C     2.640000000    -3.662000000    -1.748000000
C     1.372000000    -3.931000000    -2.203000000
H     1.083000000    -3.601000000    -3.198000000
C     0.448000000    -4.663000000    -1.435000000
O    -0.818000000    -4.699000000    -1.874000000
C    -1.670000000    -3.651000000    -1.295000000
C    -2.554000000    -3.056000000    -2.446000000
C    -3.595000000    -2.188000000    -2.128000000
H    -3.693000000    -1.847000000    -1.100000000
C    -2.210000000    -3.260000000    -3.820000000
H    -1.302000000    -3.809000000    -4.058000000
O    -2.548000000    -4.189000000    -0.322000000
H    -1.095000000    -2.838000000    -0.828000000
C     0.780000000    -4.957000000    -0.127000000
C    -0.264000000    -5.587000000     0.825000000
H     0.190000000    -6.259000000     1.556000000
H    -0.948000000    -6.121000000     0.162000000
C    -1.128000000    -4.536000000     1.614000000
C    -0.780000000    -4.128000000     2.915000000
H    -0.080000000    -4.717000000     3.502000000
C    -2.196000000    -3.852000000     0.955000000
C    -2.905000000    -2.891000000     1.611000000
H    -3.722000000    -2.446000000     1.050000000
C    -2.495000000    -2.452000000     2.829000000
O    -3.230000000    -1.513000000     3.443000000
C    -2.712000000    -0.154000000     3.498000000
C    -3.719000000     0.869000000     3.057000000
C    -4.831000000     0.508000000     2.365000000
H    -4.967000000    -0.544000000     2.128000000
C    -3.518000000     2.278000000     3.235000000
H    -2.581000000     2.642000000     3.649000000
O    -2.130000000     0.139000000     4.813000000
H    -1.987000000    -0.158000000     2.670000000
C    -1.386000000    -3.000000000     3.521000000
C    -0.942000000    -2.586000000     4.904000000
H    -0.351000000    -3.382000000     5.361000000
H    -1.817000000    -2.387000000     5.526000000
C    -0.120000000    -1.348000000     4.780000000
C    -0.703000000    -0.088000000     4.858000000
C     0.062000000     1.089000000     4.712000000
H    -0.406000000     2.057000000     4.553000000
C     1.420000000     0.927000000     4.435000000
O     2.051000000     2.086000000     3.982000000
C     2.449000000     2.215000000     2.527000000
H     1.746000000     1.584000000     1.963000000
C     2.286000000     3.672000000     2.003000000
C     2.880000000     4.027000000     0.824000000
H     3.580000000     3.323000000     0.380000000
C     1.519000000     4.563000000     2.681000000
H     0.865000000     4.277000000     3.500000000
C     1.282000000     5.791000000     2.111000000
O     0.363000000     6.678000000     2.737000000
C     2.150000000     6.332000000     1.157000000
H     2.138000000     7.390000000     0.907000000
C     2.863000000     5.354000000     0.416000000
O     3.549000000     5.862000000    -0.714000000
C     4.391000000     4.994000000    -1.429000000
C     3.891000000     4.365000000    -2.530000000
H     2.851000000     4.535000000    -2.798000000
C     5.784000000     4.885000000    -1.151000000
H     6.182000000     5.411000000    -0.287000000
C     6.650000000     4.213000000    -1.966000000
H     7.676000000     4.077000000    -1.633000000
C     6.130000000     3.573000000    -3.140000000
H     6.773000000     2.990000000    -3.794000000
C     4.754000000     3.627000000    -3.395000000
O     4.246000000     2.990000000    -4.484000000
C     3.795000000     1.673000000    -4.497000000
C     2.972000000     1.331000000    -5.600000000
H     2.673000000     2.108000000    -6.298000000
C     2.413000000     0.049000000    -5.561000000
O     1.424000000    -0.192000000    -6.536000000
C     0.781000000    -1.399000000    -6.656000000
C    -0.620000000    -1.380000000    -6.483000000
H    -1.139000000    -0.448000000    -6.274000000
C     1.439000000    -2.595000000    -7.116000000
H     2.503000000    -2.605000000    -7.339000000
C     0.658000000    -3.760000000    -7.118000000
H     1.190000000    -4.699000000    -7.244000000
C    -0.673000000    -3.766000000    -6.736000000
H    -1.234000000    -4.665000000    -6.494000000
C    -1.338000000    -2.554000000    -6.653000000
O    -2.558000000    -2.605000000    -6.183000000
C    -2.933000000    -2.591000000    -4.820000000
C    -3.948000000    -1.670000000    -4.444000000
H    -4.331000000    -0.926000000    -5.138000000
C    -4.344000000    -1.525000000    -3.117000000
O    -5.322000000    -0.628000000    -2.817000000
C    -6.045000000    -0.800000000    -1.688000000
C    -6.065000000     0.153000000    -0.699000000
H    -5.339000000     0.949000000    -0.844000000
C    -6.870000000    -1.903000000    -1.563000000
H    -6.803000000    -2.723000000    -2.273000000
C    -7.934000000    -1.843000000    -0.686000000
H    -8.559000000    -2.729000000    -0.604000000
C    -7.870000000    -0.963000000     0.383000000
H    -8.517000000    -1.125000000     1.241000000
C    -6.938000000     0.036000000     0.434000000
O    -6.910000000     0.959000000     1.443000000
C    -5.723000000     1.439000000     1.950000000
C    -5.531000000     2.792000000     2.012000000
H    -6.227000000     3.531000000     1.622000000
C    -4.329000000     3.222000000     2.627000000
O    -4.030000000     4.577000000     2.576000000
C    -3.002000000     5.231000000     3.233000000
C    -3.206000000     5.633000000     4.599000000
H    -4.173000000     5.342000000     5.002000000
C    -2.139000000     6.286000000     5.255000000
H    -2.297000000     6.655000000     6.265000000
C    -0.930000000     6.609000000     4.627000000
H    -0.163000000     7.123000000     5.201000000
C    -0.809000000     6.331000000     3.311000000
C    -1.769000000     5.533000000     2.650000000
H    -1.545000000     5.261000000     1.622000000
C    -1.317000000     0.448000000    -1.974000000
H    -1.652000000     0.191000000    -2.976000000
C    -0.508000000    -0.434000000    -1.247000000
H    -0.237000000    -1.346000000    -1.772000000
C    -0.081000000    -0.135000000     0.043000000
H     0.680000000    -0.718000000     0.599000000
C    -0.653000000     1.014000000     0.669000000
H    -0.495000000     1.136000000     1.738000000
C    -1.499000000     1.908000000    -0.061000000
H    -1.928000000     2.788000000     0.411000000
C    -1.745000000     1.715000000    -1.413000000
C    -2.697000000     2.587000000    -2.184000000
O    -3.584000000     3.087000000    -1.527000000
O    -2.365000000     2.811000000    -3.315000000
O    -7.137000000     1.503000000    -5.147000000
H    -7.563000000     1.524000000    -6.004000000
H    -6.313000000     1.972000000    -5.277000000
O    -0.796000000     6.313000000    -1.403000000
H    -1.010000000     5.971000000    -2.271000000
H    -1.604000000     6.211000000    -0.900000000
O    -4.766000000     4.172000000    -6.988000000
H    -4.037000000     4.237000000    -7.605000000
H    -4.347000000     4.103000000    -6.130000000
O    -4.436000000     5.004000000    -4.134000000
H    -4.989000000     4.359000000    -3.691000000
H    -3.543000000     4.761000000    -3.889000000
O     1.702000000     7.533000000    -2.061000000
H     1.100000000     7.043000000    -1.501000000
H     2.562000000     7.401000000    -1.662000000
O    -8.287000000     1.502000000    -2.781000000
H    -8.955000000     0.870000000    -3.045000000
H    -7.874000000     1.771000000    -3.601000000
O    -6.123000000     3.222000000    -2.277000000
H    -5.292000000     3.055000000    -1.830000000
H    -6.477000000     2.351000000    -2.456000000
O    -0.516000000     6.118000000    -6.695000000
H    -1.110000000     6.544000000    -6.078000000
H     0.302000000     6.017000000    -6.210000000
O    -5.628000000     7.488000000    -4.686000000
H    -5.154000000     6.795000000    -4.227000000
H    -6.058000000     7.042000000    -5.416000000
O    -0.609000000     2.589000000    -7.734000000
H    -1.477000000     2.194000000    -7.816000000
H    -0.392000000     2.500000000    -6.806000000
O    -0.350000000     2.118000000    -5.007000000
H    -1.094000000     2.317000000    -4.438000000
H     0.340000000     1.833000000    -4.408000000
O    -4.644000000     5.108000000    -0.176000000
H    -4.369000000     4.405000000    -0.764000000
H    -4.733000000     4.685000000     0.678000000
O    -1.194000000     5.159000000    -3.676000000
H    -1.661000000     4.346000000    -3.484000000
H    -0.367000000     4.874000000    -4.065000000
O    -2.559000000     7.365000000    -5.262000000
H    -2.985000000     6.545000000    -5.010000000
H    -2.269000000     7.748000000    -4.434000000
O    -2.536000000     8.902000000    -2.907000000
H    -1.690000000     9.167000000    -2.545000000
H    -2.849000000     8.221000000    -2.312000000
O    -6.792000000     5.827000000    -2.192000000
H    -6.810000000     4.902000000    -2.437000000
H    -6.113000000     5.883000000    -1.520000000
O     1.411000000     5.048000000    -5.193000000
H     2.320000000     5.348000000    -5.193000000
H     1.335000000     4.515000000    -5.984000000
O    -4.410000000     1.962000000    -5.107000000
H    -4.796000000     1.303000000    -4.530000000
H    -3.558000000     2.155000000    -4.715000000
O    -3.342000000     7.349000000    -0.800000000
H    -2.792000000     7.511000000    -0.034000000
H    -3.885000000     6.601000000    -0.552000000
