215
-1446.14251
C    -3.055000000     2.870000000     2.617000000
H    -2.333000000     3.580000000     2.222000000
C    -2.644000000     1.779000000     3.394000000
C    -3.560000000     0.847000000     3.826000000
H    -3.308000000    -0.013000000     4.441000000
C    -1.202000000     1.504000000     3.646000000
O    -0.575000000     2.703000000     4.081000000
H    -0.669000000     1.096000000     2.774000000
O    -1.007000000     0.474000000     4.612000000
C     0.008000000    -0.426000000     4.464000000
C    -0.386000000    -1.689000000     4.146000000
H    -1.445000000    -1.930000000     4.182000000
C     0.580000000    -2.620000000     3.784000000
O     0.133000000    -3.844000000     3.342000000
C     2.018000000    -2.299000000     3.848000000
C     3.197000000    -3.146000000     3.277000000
H     4.060000000    -2.754000000     3.819000000
C     3.330000000    -3.116000000     1.766000000
C     4.206000000    -2.302000000     1.172000000
H     4.861000000    -1.708000000     1.804000000
H     3.070000000    -4.190000000     3.571000000
C     2.338000000    -1.030000000     4.378000000
H     3.393000000    -0.799000000     4.503000000
C     1.344000000    -0.032000000     4.626000000
C     1.747000000     1.362000000     5.222000000
H     2.746000000     1.450000000     5.655000000
H     0.971000000     1.741000000     5.890000000
C     1.814000000     2.296000000     3.992000000
C     3.025000000     2.434000000     3.260000000
H     3.934000000     2.010000000     3.679000000
C     0.626000000     2.951000000     3.490000000
C     0.664000000     3.762000000     2.416000000
H    -0.218000000     4.258000000     2.020000000
C     1.894000000     3.880000000     1.753000000
O     1.839000000     4.556000000     0.581000000
C     1.737000000     3.902000000    -0.620000000
C     0.711000000     4.548000000    -1.511000000
C     0.555000000     4.096000000    -2.787000000
H     1.234000000     3.390000000    -3.258000000
C    -0.203000000     5.432000000    -0.965000000
H    -0.120000000     5.796000000     0.056000000
O     2.949000000     3.776000000    -1.377000000
H     1.439000000     2.873000000    -0.368000000
C     3.022000000     3.112000000     2.061000000
C     4.260000000     3.249000000     1.099000000
H     5.026000000     2.851000000     1.768000000
H     4.534000000     4.233000000     0.713000000
C     4.206000000     2.206000000    -0.034000000
C     4.688000000     0.952000000     0.097000000
H     5.193000000     0.711000000     1.029000000
C     3.661000000     2.532000000    -1.265000000
C     3.441000000     1.644000000    -2.264000000
H     2.948000000     1.908000000    -3.196000000
C     4.030000000     0.402000000    -2.101000000
O     3.690000000    -0.559000000    -3.011000000
C     2.627000000    -1.460000000    -2.723000000
C     1.772000000    -1.698000000    -3.910000000
C     1.460000000    -0.634000000    -4.737000000
H     1.892000000     0.358000000    -4.641000000
C     1.176000000    -2.935000000    -4.114000000
H     1.407000000    -3.730000000    -3.410000000
O     3.295000000    -2.660000000    -2.262000000
H     2.041000000    -1.067000000    -1.878000000
C     4.711000000     0.085000000    -0.914000000
C     5.295000000    -1.274000000    -0.799000000
H     6.159000000    -1.256000000    -0.132000000
H     5.578000000    -1.736000000    -1.747000000
C     4.233000000    -2.160000000    -0.204000000
C     3.376000000    -2.927000000    -0.985000000
C     2.505000000    -3.804000000    -0.377000000
H     1.810000000    -4.378000000    -0.985000000
C     2.481000000    -3.883000000     0.958000000
O     1.449000000    -4.634000000     1.539000000
C     0.248000000    -3.941000000     1.927000000
H     0.335000000    -2.909000000     1.555000000
C    -1.034000000    -4.484000000     1.261000000
C    -2.240000000    -4.094000000     1.785000000
H    -2.211000000    -3.363000000     2.589000000
C    -1.018000000    -5.356000000     0.182000000
H    -0.041000000    -5.767000000    -0.059000000
C    -2.279000000    -5.808000000    -0.390000000
O    -2.314000000    -6.528000000    -1.577000000
C    -3.482000000    -5.321000000     0.166000000
H    -4.438000000    -5.609000000    -0.262000000
C    -3.461000000    -4.437000000     1.239000000
O    -4.683000000    -3.914000000     1.597000000
C    -4.808000000    -3.251000000     2.780000000
C    -5.155000000    -1.866000000     2.781000000
H    -5.134000000    -1.322000000     1.840000000
C    -4.893000000    -3.950000000     3.927000000
H    -4.471000000    -4.952000000     3.944000000
C    -5.255000000    -3.365000000     5.119000000
H    -5.084000000    -3.833000000     6.085000000
C    -5.663000000    -2.023000000     5.141000000
H    -5.887000000    -1.588000000     6.112000000
C    -5.463000000    -1.223000000     3.961000000
O    -5.841000000     0.091000000     4.042000000
C    -4.908000000     1.024000000     3.539000000
C    -5.326000000     2.075000000     2.690000000
H    -6.374000000     2.061000000     2.401000000
C    -4.354000000     3.029000000     2.269000000
O    -4.632000000     4.017000000     1.348000000
C    -3.957000000     5.183000000     1.274000000
C    -3.275000000     5.447000000     0.092000000
H    -3.320000000     4.743000000    -0.736000000
C    -3.966000000     6.139000000     2.297000000
H    -4.546000000     5.967000000     3.200000000
C    -3.178000000     7.261000000     2.156000000
H    -3.070000000     7.942000000     2.996000000
C    -2.567000000     7.556000000     0.926000000
H    -2.009000000     8.474000000     0.766000000
C    -2.724000000     6.671000000    -0.134000000
O    -2.012000000     6.901000000    -1.294000000
C    -1.191000000     5.942000000    -1.824000000
C    -1.249000000     5.544000000    -3.106000000
H    -2.075000000     5.942000000    -3.690000000
C    -0.435000000     4.611000000    -3.613000000
O    -0.601000000     4.330000000    -5.029000000
C     0.125000000     3.560000000    -5.928000000
C    -0.363000000     2.262000000    -6.117000000
H    -1.245000000     1.859000000    -5.625000000
C     1.378000000     3.954000000    -6.304000000
H     1.650000000     4.925000000    -5.899000000
C     2.236000000     3.107000000    -6.998000000
H     3.205000000     3.484000000    -7.317000000
C     1.814000000     1.843000000    -7.158000000
H     2.431000000     1.074000000    -7.616000000
C     0.574000000     1.423000000    -6.721000000
O     0.326000000     0.064000000    -6.874000000
C     0.582000000    -0.847000000    -5.805000000
C    -0.051000000    -2.083000000    -5.945000000
H    -0.689000000    -2.213000000    -6.816000000
C     0.288000000    -3.168000000    -5.129000000
O    -0.412000000    -4.401000000    -5.207000000
C    -0.306000000    -5.442000000    -4.296000000
C     0.464000000    -6.538000000    -4.574000000
H     1.033000000    -6.547000000    -5.500000000
C     0.310000000    -7.746000000    -3.815000000
H     0.796000000    -8.696000000    -4.025000000
C    -0.602000000    -7.706000000    -2.719000000
H    -0.977000000    -8.593000000    -2.215000000
C    -1.293000000    -6.549000000    -2.452000000
C    -1.159000000    -5.462000000    -3.214000000
H    -1.784000000    -4.591000000    -3.031000000
C    -2.472000000     0.293000000    -0.701000000
H    -3.334000000     0.938000000    -0.551000000
C    -1.270000000     0.656000000    -0.105000000
H    -1.222000000     1.614000000     0.406000000
C    -0.182000000    -0.254000000    -0.156000000
H     0.686000000    -0.031000000     0.451000000
C    -0.284000000    -1.499000000    -0.791000000
H     0.438000000    -2.298000000    -0.646000000
C    -1.555000000    -1.843000000    -1.311000000
H    -1.551000000    -2.876000000    -1.648000000
C    -2.623000000    -0.970000000    -1.307000000
C    -3.875000000    -1.271000000    -2.000000000
O    -4.337000000    -2.418000000    -2.127000000
O    -4.632000000    -0.352000000    -2.337000000
O    -3.658000000     1.588000000    -6.609000000
H    -3.392000000     2.385000000    -6.151000000
H    -4.397000000     1.860000000    -7.154000000
O    -7.224000000    -1.763000000    -1.835000000
H    -7.640000000    -1.684000000    -2.693000000
H    -6.293000000    -1.625000000    -2.007000000
O    -6.033000000    -1.238000000    -6.478000000
H    -6.062000000    -0.592000000    -5.773000000
H    -5.445000000    -1.921000000    -6.154000000
O    -3.019000000    -1.062000000    -5.483000000
H    -2.766000000    -1.187000000    -6.397000000
H    -3.116000000    -0.115000000    -5.388000000
O    -7.749000000    -6.116000000    -0.998000000
H    -7.228000000    -6.712000000    -0.461000000
H    -7.120000000    -5.468000000    -1.317000000
O    -4.754000000     4.000000000    -2.910000000
H    -5.192000000     4.761000000    -2.529000000
H    -5.054000000     3.261000000    -2.380000000
O    -3.776000000    -3.574000000    -4.308000000
H    -3.311000000    -2.809000000    -4.646000000
H    -4.086000000    -3.304000000    -3.444000000
O    -2.513000000     1.481000000    -3.316000000
H    -3.298000000     1.059000000    -2.968000000
H    -1.905000000     1.506000000    -2.577000000
O    -8.753000000    -0.726000000    -4.030000000
H    -9.526000000    -1.111000000    -4.443000000
H    -8.034000000    -0.934000000    -4.627000000
O    -8.926000000     1.243000000    -2.233000000
H    -8.293000000     1.043000000    -1.543000000
H    -8.861000000     0.504000000    -2.838000000
O    -7.332000000     0.153000000     0.076000000
H    -8.024000000    -0.111000000     0.682000000
H    -7.116000000    -0.647000000    -0.404000000
O    -8.192000000     2.382000000    -5.404000000
H    -8.503000000     1.719000000    -6.020000000
H    -7.670000000     1.893000000    -4.768000000
O    -5.409000000     1.974000000    -1.449000000
H    -5.932000000     2.082000000    -0.654000000
H    -5.290000000     1.028000000    -1.530000000
O    -3.455000000    -0.652000000    -8.651000000
H    -3.598000000    -0.295000000    -7.775000000
H    -3.465000000     0.113000000    -9.226000000
O    -8.473000000    -3.219000000     0.416000000
H    -9.321000000    -3.369000000    -0.002000000
H    -8.004000000    -2.648000000    -0.193000000
O    -5.964000000    -5.132000000    -2.709000000
H    -6.541000000    -4.913000000    -3.440000000
H    -5.462000000    -4.332000000    -2.552000000
O    -6.085000000     0.701000000    -4.351000000
H    -5.769000000     1.600000000    -4.270000000
H    -5.714000000     0.247000000    -3.594000000
O    -3.540000000     4.016000000    -5.272000000
H    -4.142000000     3.954000000    -4.531000000
H    -2.670000000     4.033000000    -4.873000000
O    -4.688000000    -6.252000000    -5.453000000
H    -4.297000000    -5.483000000    -5.037000000
H    -5.003000000    -6.785000000    -4.723000000
