215
-1464.14979
C    -2.706000000     2.607000000     3.650000000
H    -2.120000000     3.483000000     3.381000000
C    -2.144000000     1.367000000     3.950000000
C    -3.013000000     0.265000000     4.085000000
H    -2.612000000    -0.722000000     4.302000000
C    -0.571000000     1.215000000     4.040000000
O     0.123000000     2.449000000     4.307000000
H    -0.213000000     1.009000000     3.021000000
O    -0.155000000     0.213000000     4.971000000
C     0.751000000    -0.685000000     4.470000000
C     0.290000000    -1.927000000     4.173000000
H    -0.778000000    -2.129000000     4.145000000
C     1.191000000    -2.842000000     3.613000000
O     0.725000000    -4.044000000     3.061000000
C     2.514000000    -2.512000000     3.422000000
C     3.482000000    -3.447000000     2.764000000
H     4.475000000    -3.207000000     3.150000000
C     3.474000000    -3.266000000     1.223000000
C     4.303000000    -2.299000000     0.656000000
H     4.779000000    -1.632000000     1.370000000
H     3.339000000    -4.477000000     3.100000000
C     2.971000000    -1.271000000     3.869000000
H     4.014000000    -1.016000000     3.701000000
C     2.070000000    -0.309000000     4.347000000
C     2.599000000     1.031000000     4.786000000
H     3.638000000     0.882000000     5.086000000
H     2.127000000     1.352000000     5.717000000
C     2.448000000     2.102000000     3.715000000
C     3.510000000     2.525000000     2.934000000
H     4.511000000     2.121000000     3.067000000
C     1.207000000     2.779000000     3.553000000
C     1.048000000     3.707000000     2.583000000
H     0.101000000     4.217000000     2.424000000
C     2.075000000     3.908000000     1.727000000
O     1.765000000     4.558000000     0.487000000
C     1.533000000     3.855000000    -0.838000000
C     0.409000000     4.454000000    -1.617000000
C     0.563000000     4.797000000    -2.998000000
H     1.528000000     4.651000000    -3.476000000
C    -0.879000000     4.343000000    -1.022000000
H    -1.022000000     3.964000000    -0.014000000
O     2.814000000     4.017000000    -1.563000000
H     1.367000000     2.782000000    -0.660000000
C     3.290000000     3.326000000     1.881000000
C     4.354000000     3.491000000     0.774000000
H     5.345000000     3.312000000     1.197000000
H     4.454000000     4.523000000     0.432000000
C     4.260000000     2.545000000    -0.385000000
C     4.901000000     1.320000000    -0.359000000
H     5.587000000     1.082000000     0.450000000
C     3.485000000     2.849000000    -1.450000000
C     3.309000000     1.989000000    -2.547000000
H     2.554000000     2.200000000    -3.300000000
C     3.924000000     0.705000000    -2.449000000
O     3.534000000    -0.196000000    -3.401000000
C     2.460000000    -1.135000000    -3.054000000
C     1.394000000    -1.248000000    -4.107000000
C     1.254000000    -0.262000000    -5.049000000
H     1.949000000     0.568000000    -5.151000000
C     0.404000000    -2.207000000    -3.993000000
H     0.462000000    -2.955000000    -3.206000000
O     3.004000000    -2.397000000    -2.743000000
H     2.072000000    -0.688000000    -2.127000000
C     4.734000000     0.381000000    -1.373000000
C     5.242000000    -1.040000000    -1.291000000
H     6.122000000    -1.031000000    -0.645000000
H     5.486000000    -1.438000000    -2.278000000
C     4.216000000    -2.037000000    -0.688000000
C     3.318000000    -2.816000000    -1.482000000
C     2.494000000    -3.712000000    -0.937000000
H     1.752000000    -4.240000000    -1.531000000
C     2.533000000    -3.964000000     0.447000000
O     1.499000000    -4.707000000     0.928000000
C     0.474000000    -4.027000000     1.652000000
H     0.418000000    -3.016000000     1.222000000
C    -0.868000000    -4.721000000     1.416000000
C    -1.926000000    -4.656000000     2.385000000
H    -1.691000000    -4.169000000     3.328000000
C    -1.059000000    -5.415000000     0.235000000
H    -0.255000000    -5.575000000    -0.477000000
C    -2.302000000    -5.945000000    -0.055000000
O    -2.506000000    -6.443000000    -1.292000000
C    -3.374000000    -5.924000000     0.839000000
H    -4.361000000    -6.310000000     0.596000000
C    -3.148000000    -5.301000000     2.078000000
O    -4.256000000    -5.217000000     2.915000000
C    -4.427000000    -4.191000000     3.871000000
C    -4.660000000    -2.915000000     3.460000000
H    -4.775000000    -2.673000000     2.406000000
C    -4.366000000    -4.500000000     5.179000000
H    -4.143000000    -5.515000000     5.498000000
C    -4.598000000    -3.599000000     6.174000000
H    -4.563000000    -3.786000000     7.245000000
C    -4.799000000    -2.283000000     5.774000000
H    -4.946000000    -1.528000000     6.542000000
C    -4.926000000    -1.924000000     4.401000000
O    -5.288000000    -0.628000000     4.030000000
C    -4.389000000     0.424000000     3.951000000
C    -4.853000000     1.726000000     3.583000000
H    -5.929000000     1.821000000     3.459000000
C    -4.085000000     2.796000000     3.490000000
O    -4.554000000     4.100000000     3.355000000
C    -4.158000000     4.967000000     2.333000000
C    -3.796000000     4.467000000     1.070000000
H    -3.900000000     3.403000000     0.874000000
C    -3.938000000     6.275000000     2.675000000
H    -4.078000000     6.624000000     3.695000000
C    -3.579000000     7.168000000     1.647000000
H    -3.408000000     8.197000000     1.954000000
C    -3.512000000     6.759000000     0.328000000
H    -3.291000000     7.435000000    -0.494000000
C    -3.492000000     5.348000000     0.073000000
O    -3.158000000     4.851000000    -1.129000000
C    -1.935000000     4.868000000    -1.737000000
C    -1.817000000     5.149000000    -3.083000000
H    -2.698000000     5.339000000    -3.689000000
C    -0.559000000     5.025000000    -3.722000000
O    -0.446000000     5.151000000    -5.095000000
C     0.203000000     4.225000000    -5.881000000
C    -0.318000000     2.895000000    -5.956000000
H    -1.183000000     2.562000000    -5.389000000
C     1.286000000     4.581000000    -6.728000000
H     1.689000000     5.586000000    -6.634000000
C     1.891000000     3.613000000    -7.516000000
H     2.752000000     3.926000000    -8.101000000
C     1.409000000     2.311000000    -7.607000000
H     1.753000000     1.540000000    -8.293000000
C     0.350000000     1.975000000    -6.793000000
O    -0.131000000     0.685000000    -6.899000000
C     0.154000000    -0.244000000    -5.913000000
C    -0.821000000    -1.201000000    -5.775000000
H    -1.634000000    -1.220000000    -6.497000000
C    -0.688000000    -2.185000000    -4.841000000
O    -1.633000000    -3.173000000    -4.756000000
C    -1.431000000    -4.420000000    -4.226000000
C    -0.752000000    -5.314000000    -4.972000000
H    -0.502000000    -4.977000000    -5.975000000
C    -0.598000000    -6.612000000    -4.453000000
H    -0.064000000    -7.376000000    -5.013000000
C    -1.153000000    -6.988000000    -3.241000000
H    -1.212000000    -8.034000000    -2.951000000
C    -1.824000000    -6.063000000    -2.462000000
C    -1.966000000    -4.733000000    -2.971000000
H    -2.530000000    -4.016000000    -2.381000000
C    -2.650000000     0.553000000    -0.134000000
H    -3.350000000     1.364000000     0.052000000
C    -1.279000000     0.712000000    -0.267000000
H    -0.729000000     1.647000000    -0.325000000
C    -0.449000000    -0.388000000    -0.389000000
H     0.629000000    -0.235000000    -0.475000000
C    -0.999000000    -1.658000000    -0.447000000
H    -0.291000000    -2.481000000    -0.491000000
C    -2.353000000    -1.870000000    -0.306000000
H    -2.709000000    -2.897000000    -0.324000000
C    -3.192000000    -0.751000000    -0.178000000
C    -4.681000000    -0.958000000     0.100000000
O    -5.139000000    -2.041000000    -0.232000000
O    -5.454000000    -0.034000000     0.280000000
O    -9.626000000    -3.639000000    -1.110000000
H   -10.015000000    -3.011000000    -0.502000000
H    -8.722000000    -3.734000000    -0.811000000
O    -7.564000000    -0.425000000    -1.670000000
H    -7.414000000    -1.307000000    -2.012000000
H    -7.124000000    -0.419000000    -0.820000000
O    -4.319000000    -0.320000000    -3.818000000
H    -3.973000000     0.402000000    -3.294000000
H    -4.905000000     0.100000000    -4.448000000
O    -8.409000000    -4.803000000     2.722000000
H    -7.954000000    -4.702000000     1.885000000
H    -8.126000000    -4.050000000     3.241000000
O    -5.057000000    -2.927000000    -2.855000000
H    -4.750000000    -2.196000000    -3.392000000
H    -5.066000000    -2.581000000    -1.962000000
O    -8.250000000    -2.340000000     4.060000000
H    -7.797000000    -2.384000000     4.902000000
H    -8.503000000    -1.421000000     3.972000000
O    -9.801000000     1.799000000     1.351000000
H    -8.925000000     1.653000000     0.992000000
H    -9.856000000     2.746000000     1.471000000
O    -1.774000000     0.988000000    -3.256000000
H    -1.778000000     0.233000000    -3.844000000
H    -1.619000000     0.615000000    -2.388000000
O    -8.500000000     1.256000000    -3.851000000
H    -7.689000000     1.671000000    -4.145000000
H    -8.214000000     0.578000000    -3.239000000
O   -10.482000000     0.054000000    -2.238000000
H   -10.004000000     0.764000000    -2.667000000
H    -9.835000000    -0.359000000    -1.666000000
O    -7.828000000    -2.902000000    -3.180000000
H    -6.928000000    -3.219000000    -3.249000000
H    -7.873000000    -2.169000000    -3.794000000
O    -7.296000000     2.158000000    -0.567000000
H    -7.650000000     1.508000000    -1.174000000
H    -6.433000000     1.819000000    -0.328000000
O    -7.415000000    -0.288000000     1.947000000
H    -6.692000000     0.001000000     1.389000000
H    -6.988000000    -0.658000000     2.719000000
O    -7.267000000    -3.271000000     0.483000000
H    -7.973000000    -2.700000000     0.785000000
H    -6.542000000    -2.675000000     0.294000000
O    -5.328000000     2.911000000    -2.299000000
H    -5.288000000     3.867000000    -2.311000000
H    -6.141000000     2.711000000    -1.834000000
O    -3.618000000     2.801000000    -4.485000000
H    -4.134000000     2.823000000    -3.680000000
H    -2.869000000     2.243000000    -4.275000000
O   -10.149000000    -1.801000000     0.758000000
H   -10.873000000    -1.847000000     1.382000000
H    -9.588000000    -1.101000000     1.092000000
O    -6.392000000    -5.985000000    -1.646000000
H    -7.065000000    -6.323000000    -1.056000000
H    -6.528000000    -5.037000000    -1.646000000
O    -4.828000000    -5.588000000    -4.414000000
H    -4.977000000    -4.940000000    -3.725000000
H    -5.362000000    -6.339000000    -4.156000000
