215
-1424.76159
C    -2.786000000     2.812000000     2.925000000
H    -1.911000000     3.448000000     2.814000000
C    -2.572000000     1.512000000     3.408000000
C    -3.518000000     0.528000000     3.101000000
H    -3.187000000    -0.487000000     3.308000000
C    -1.179000000     0.977000000     3.749000000
O    -0.395000000     2.009000000     4.281000000
H    -0.620000000     0.625000000     2.869000000
O    -1.333000000    -0.142000000     4.761000000
C    -0.393000000    -1.130000000     4.452000000
C    -0.882000000    -2.216000000     3.819000000
H    -1.924000000    -2.357000000     3.544000000
C     0.063000000    -3.243000000     3.423000000
O    -0.537000000    -4.282000000     2.732000000
C     1.397000000    -3.046000000     3.542000000
C     2.451000000    -4.088000000     3.039000000
H     3.369000000    -4.084000000     3.630000000
C     2.786000000    -3.909000000     1.598000000
C     3.876000000    -3.155000000     1.244000000
H     4.531000000    -2.727000000     1.998000000
H     2.109000000    -5.122000000     3.119000000
C     1.894000000    -1.841000000     4.030000000
H     2.975000000    -1.745000000     4.096000000
C     0.979000000    -0.981000000     4.652000000
C     1.664000000     0.304000000     5.204000000
H     2.636000000     0.035000000     5.622000000
H     1.080000000     0.723000000     6.027000000
C     1.890000000     1.452000000     4.253000000
C     3.192000000     1.565000000     3.621000000
H     4.022000000     0.924000000     3.907000000
C     0.825000000     2.281000000     3.867000000
C     1.106000000     3.314000000     2.987000000
H     0.308000000     3.996000000     2.705000000
C     2.308000000     3.439000000     2.398000000
O     2.372000000     4.323000000     1.319000000
C     2.338000000     3.960000000    -0.091000000
C     1.498000000     4.865000000    -0.978000000
C     1.734000000     4.945000000    -2.396000000
H     2.645000000     4.468000000    -2.749000000
C     0.401000000     5.525000000    -0.450000000
H     0.070000000     5.346000000     0.570000000
O     3.659000000     3.768000000    -0.599000000
H     1.882000000     2.965000000     0.018000000
C     3.370000000     2.607000000     2.690000000
C     4.682000000     2.736000000     1.934000000
H     5.535000000     2.363000000     2.505000000
H     4.922000000     3.761000000     1.641000000
C     4.590000000     1.945000000     0.662000000
C     5.023000000     0.568000000     0.649000000
H     5.509000000     0.216000000     1.555000000
C     4.153000000     2.498000000    -0.545000000
C     3.898000000     1.647000000    -1.615000000
H     3.390000000     2.076000000    -2.474000000
C     4.155000000     0.290000000    -1.598000000
O     3.783000000    -0.489000000    -2.687000000
C     2.686000000    -1.401000000    -2.587000000
C     1.720000000    -1.375000000    -3.765000000
C     1.525000000    -0.151000000    -4.454000000
H     2.214000000     0.679000000    -4.322000000
C     0.716000000    -2.299000000    -3.880000000
H     0.750000000    -3.236000000    -3.329000000
O     3.262000000    -2.694000000    -2.363000000
H     2.146000000    -1.066000000    -1.689000000
C     4.839000000    -0.223000000    -0.510000000
C     5.259000000    -1.674000000    -0.398000000
H     5.901000000    -1.733000000     0.483000000
H     5.793000000    -1.777000000    -1.345000000
C     4.062000000    -2.693000000    -0.057000000
C     3.220000000    -3.188000000    -1.073000000
C     2.091000000    -3.963000000    -0.766000000
H     1.508000000    -4.472000000    -1.529000000
C     1.837000000    -4.228000000     0.600000000
O     0.670000000    -4.913000000     0.810000000
C    -0.499000000    -4.188000000     1.207000000
H    -0.448000000    -3.120000000     0.951000000
C    -1.775000000    -4.675000000     0.589000000
C    -2.968000000    -4.616000000     1.333000000
H    -3.046000000    -4.064000000     2.266000000
C    -1.793000000    -5.428000000    -0.583000000
H    -0.854000000    -5.495000000    -1.127000000
C    -2.999000000    -5.924000000    -1.105000000
O    -2.955000000    -6.614000000    -2.328000000
C    -4.255000000    -5.750000000    -0.454000000
H    -5.138000000    -6.148000000    -0.947000000
C    -4.152000000    -5.055000000     0.769000000
O    -5.365000000    -4.752000000     1.425000000
C    -5.641000000    -3.639000000     2.206000000
C    -5.371000000    -2.340000000     1.790000000
H    -4.986000000    -2.142000000     0.793000000
C    -6.222000000    -3.910000000     3.430000000
H    -6.485000000    -4.942000000     3.649000000
C    -6.456000000    -2.867000000     4.321000000
H    -6.897000000    -3.130000000     5.279000000
C    -6.188000000    -1.563000000     3.895000000
H    -6.582000000    -0.866000000     4.630000000
C    -5.728000000    -1.307000000     2.696000000
O    -5.661000000    -0.070000000     2.162000000
C    -4.757000000     0.874000000     2.537000000
C    -5.035000000     2.199000000     2.286000000
H    -5.916000000     2.438000000     1.696000000
C    -4.039000000     3.157000000     2.437000000
O    -4.316000000     4.436000000     2.029000000
C    -3.454000000     5.449000000     1.868000000
C    -2.925000000     5.638000000     0.615000000
H    -3.153000000     5.014000000    -0.245000000
C    -3.093000000     6.264000000     2.946000000
H    -3.649000000     6.091000000     3.864000000
C    -2.233000000     7.269000000     2.764000000
H    -2.032000000     7.956000000     3.582000000
C    -1.649000000     7.462000000     1.531000000
H    -1.058000000     8.355000000     1.343000000
C    -1.978000000     6.661000000     0.475000000
O    -1.625000000     6.901000000    -0.797000000
C    -0.449000000     6.319000000    -1.313000000
C    -0.161000000     6.334000000    -2.700000000
H    -0.824000000     6.934000000    -3.318000000
C     0.922000000     5.733000000    -3.264000000
O     1.156000000     5.757000000    -4.663000000
C     1.573000000     4.605000000    -5.320000000
C     0.768000000     3.545000000    -5.266000000
H    -0.143000000     3.554000000    -4.672000000
C     2.748000000     4.642000000    -6.072000000
H     3.249000000     5.590000000    -6.246000000
C     3.289000000     3.409000000    -6.525000000
H     4.291000000     3.420000000    -6.946000000
C     2.469000000     2.280000000    -6.527000000
H     2.818000000     1.267000000    -6.713000000
C     1.157000000     2.384000000    -5.978000000
O     0.375000000     1.294000000    -6.051000000
C     0.566000000     0.093000000    -5.412000000
C    -0.391000000    -0.908000000    -5.581000000
H    -1.211000000    -0.946000000    -6.294000000
C    -0.291000000    -2.093000000    -4.836000000
O    -1.274000000    -3.071000000    -4.985000000
C    -1.266000000    -4.428000000    -4.718000000
C    -0.329000000    -5.283000000    -5.391000000
H     0.268000000    -4.939000000    -6.231000000
C    -0.408000000    -6.608000000    -5.033000000
H     0.266000000    -7.288000000    -5.547000000
C    -1.247000000    -7.078000000    -4.006000000
H    -1.365000000    -8.099000000    -3.654000000
C    -2.188000000    -6.214000000    -3.382000000
C    -2.178000000    -4.908000000    -3.793000000
H    -2.875000000    -4.249000000    -3.282000000
C    -2.028000000     1.764000000    -0.272000000
H    -2.695000000     2.620000000    -0.215000000
C    -0.778000000     1.762000000     0.229000000
H    -0.369000000     2.663000000     0.678000000
C     0.085000000     0.660000000     0.162000000
H     1.164000000     0.681000000     0.363000000
C    -0.386000000    -0.510000000    -0.402000000
H     0.193000000    -1.421000000    -0.533000000
C    -1.670000000    -0.567000000    -0.950000000
H    -1.971000000    -1.415000000    -1.559000000
C    -2.516000000     0.563000000    -0.810000000
C    -3.932000000     0.560000000    -1.306000000
O    -4.451000000    -0.503000000    -1.620000000
O    -4.565000000     1.589000000    -1.514000000
O    -0.254000000     1.831000000    -2.801000000
H     0.606000000     1.539000000    -3.104000000
H    -0.385000000     1.371000000    -1.972000000
O    -3.799000000     0.062000000    -6.151000000
H    -3.152000000     0.611000000    -5.707000000
H    -4.133000000    -0.516000000    -5.465000000
O    -5.143000000     4.115000000    -5.272000000
H    -5.984000000     4.500000000    -5.518000000
H    -5.148000000     4.120000000    -4.315000000
O    -4.509000000     4.063000000    -2.816000000
H    -5.109000000     4.615000000    -2.315000000
H    -4.477000000     3.240000000    -2.328000000
O    -6.086000000     1.166000000    -4.225000000
H    -5.176000000     1.313000000    -4.482000000
H    -6.041000000     0.962000000    -3.291000000
O    -4.495000000    -1.522000000    -4.051000000
H    -4.462000000    -1.146000000    -3.171000000
H    -5.048000000    -2.298000000    -3.959000000
O    -2.583000000     2.300000000    -4.234000000
H    -3.182000000     2.694000000    -3.600000000
H    -1.798000000     2.093000000    -3.725000000
O    -8.775000000     2.123000000    -4.243000000
H    -7.960000000     1.651000000    -4.415000000
H    -8.513000000     2.856000000    -3.685000000
O    -6.905000000    -0.284000000    -6.582000000
H    -6.496000000     0.232000000    -7.277000000
H    -6.514000000     0.050000000    -5.774000000
O   -10.534000000     0.902000000    -0.556000000
H   -10.968000000     1.747000000    -0.671000000
H    -9.599000000     1.107000000    -0.576000000
O    -8.653000000    -0.392000000     1.918000000
H    -7.817000000    -0.783000000     2.171000000
H    -8.512000000     0.551000000     2.002000000
O    -2.645000000     3.731000000    -6.682000000
H    -2.233000000     3.463000000    -5.860000000
H    -3.524000000     4.013000000    -6.428000000
O    -7.060000000     2.287000000    -0.513000000
H    -6.135000000     2.209000000    -0.748000000
H    -7.394000000     2.980000000    -1.083000000
O    -8.706000000     2.258000000     1.801000000
H    -8.187000000     2.404000000     1.010000000
H    -8.404000000     2.930000000     2.413000000
O    -7.020000000    -0.958000000    -0.833000000
H    -6.095000000    -0.886000000    -1.067000000
H    -7.142000000    -0.317000000    -0.133000000
O    -8.402000000     3.941000000    -2.343000000
H    -7.760000000     4.651000000    -2.310000000
H    -9.193000000     4.351000000    -2.694000000
O    -7.618000000    -3.529000000    -0.591000000
H    -8.328000000    -3.749000000     0.013000000
H    -7.635000000    -2.573000000    -0.643000000
O    -5.207000000    -3.579000000    -2.328000000
H    -4.676000000    -3.239000000    -1.608000000
H    -5.985000000    -3.939000000    -1.902000000
O    -8.735000000    -1.468000000    -2.883000000
H    -8.272000000    -0.642000000    -2.745000000
H    -8.507000000    -2.000000000    -2.121000000
