215
-1461.91152
C    -2.691000000     2.658000000     4.409000000
H    -2.194000000     3.618000000     4.292000000
C    -2.092000000     1.400000000     4.605000000
C    -2.851000000     0.314000000     4.859000000
H    -2.437000000    -0.689000000     4.915000000
C    -0.589000000     1.209000000     4.453000000
O     0.064000000     2.445000000     4.580000000
H    -0.354000000     0.750000000     3.481000000
O    -0.099000000     0.273000000     5.403000000
C     0.817000000    -0.549000000     4.797000000
C     0.359000000    -1.742000000     4.187000000
H    -0.686000000    -2.037000000     4.166000000
C     1.210000000    -2.491000000     3.423000000
O     0.726000000    -3.559000000     2.811000000
C     2.520000000    -2.077000000     3.277000000
C     3.594000000    -3.029000000     2.586000000
H     4.571000000    -2.737000000     2.976000000
C     3.543000000    -2.799000000     1.079000000
C     4.447000000    -1.886000000     0.480000000
H     5.138000000    -1.262000000     1.041000000
H     3.348000000    -4.054000000     2.873000000
C     2.991000000    -0.963000000     3.944000000
H     4.045000000    -0.703000000     3.985000000
C     2.050000000    -0.138000000     4.580000000
C     2.613000000     1.194000000     5.024000000
H     3.664000000     1.082000000     5.298000000
H     2.135000000     1.539000000     5.944000000
C     2.345000000     2.158000000     3.907000000
C     3.298000000     2.471000000     2.927000000
H     4.243000000     1.941000000     3.011000000
C     1.061000000     2.764000000     3.731000000
C     0.851000000     3.688000000     2.724000000
H    -0.158000000     4.085000000     2.653000000
C     1.790000000     3.822000000     1.707000000
O     1.397000000     4.530000000     0.560000000
C     1.006000000     3.628000000    -0.490000000
C    -0.378000000     3.796000000    -1.245000000
C    -0.473000000     3.610000000    -2.633000000
H     0.399000000     3.267000000    -3.183000000
C    -1.559000000     4.163000000    -0.623000000
H    -1.583000000     4.300000000     0.455000000
O     2.011000000     3.650000000    -1.453000000
H     0.978000000     2.615000000    -0.061000000
C     3.025000000     3.205000000     1.800000000
C     4.098000000     3.393000000     0.739000000
H     5.103000000     3.312000000     1.158000000
H     4.042000000     4.433000000     0.411000000
C     3.939000000     2.442000000    -0.420000000
C     4.780000000     1.322000000    -0.452000000
H     5.464000000     1.148000000     0.375000000
C     2.994000000     2.709000000    -1.468000000
C     2.985000000     1.840000000    -2.557000000
H     2.374000000     2.044000000    -3.432000000
C     3.947000000     0.870000000    -2.702000000
O     3.824000000     0.020000000    -3.782000000
C     2.901000000    -1.065000000    -3.672000000
C     2.193000000    -1.470000000    -4.932000000
C     1.574000000    -0.459000000    -5.724000000
H     1.824000000     0.554000000    -5.422000000
C     1.726000000    -2.781000000    -5.129000000
H     2.049000000    -3.634000000    -4.537000000
O     3.594000000    -2.213000000    -3.036000000
H     2.125000000    -0.686000000    -2.990000000
C     4.759000000     0.563000000    -1.584000000
C     5.495000000    -0.767000000    -1.489000000
H     6.313000000    -0.680000000    -0.770000000
H     5.938000000    -1.009000000    -2.457000000
C     4.475000000    -1.703000000    -0.904000000
C     3.508000000    -2.298000000    -1.679000000
C     2.788000000    -3.315000000    -1.085000000
H     2.013000000    -3.768000000    -1.698000000
C     2.722000000    -3.562000000     0.285000000
O     1.682000000    -4.393000000     0.757000000
C     0.672000000    -3.533000000     1.348000000
H     0.801000000    -2.480000000     1.056000000
C    -0.791000000    -3.806000000     0.885000000
C    -1.874000000    -3.630000000     1.692000000
H    -1.690000000    -3.346000000     2.725000000
C    -0.903000000    -4.220000000    -0.418000000
H     0.004000000    -4.152000000    -1.012000000
C    -2.196000000    -4.532000000    -0.989000000
O    -2.432000000    -4.944000000    -2.297000000
C    -3.315000000    -4.372000000    -0.117000000
H    -4.285000000    -4.559000000    -0.571000000
C    -3.150000000    -3.891000000     1.159000000
O    -4.304000000    -3.901000000     1.912000000
C    -4.310000000    -3.535000000     3.222000000
C    -4.484000000    -2.215000000     3.606000000
H    -4.359000000    -1.551000000     2.755000000
C    -4.372000000    -4.573000000     4.156000000
H    -4.377000000    -5.616000000     3.851000000
C    -4.603000000    -4.207000000     5.466000000
H    -4.765000000    -4.991000000     6.201000000
C    -4.778000000    -2.887000000     5.843000000
H    -5.008000000    -2.585000000     6.861000000
C    -4.713000000    -1.889000000     4.913000000
O    -5.045000000    -0.585000000     5.295000000
C    -4.229000000     0.534000000     5.043000000
C    -4.812000000     1.767000000     4.805000000
H    -5.890000000     1.783000000     4.938000000
C    -4.098000000     2.861000000     4.524000000
O    -4.747000000     4.072000000     4.184000000
C    -4.250000000     4.829000000     3.183000000
C    -4.408000000     4.411000000     1.876000000
H    -4.852000000     3.435000000     1.699000000
C    -3.522000000     5.938000000     3.534000000
H    -3.429000000     6.233000000     4.576000000
C    -2.915000000     6.714000000     2.522000000
H    -2.368000000     7.602000000     2.826000000
C    -3.115000000     6.294000000     1.197000000
H    -2.694000000     6.864000000     0.374000000
C    -3.822000000     5.179000000     0.890000000
O    -3.917000000     4.760000000    -0.446000000
C    -2.820000000     4.335000000    -1.221000000
C    -2.887000000     4.145000000    -2.557000000
H    -3.836000000     4.272000000    -3.071000000
C    -1.716000000     3.784000000    -3.233000000
O    -1.895000000     3.414000000    -4.496000000
C    -1.026000000     3.139000000    -5.439000000
C    -0.825000000     1.808000000    -5.804000000
H    -1.324000000     0.985000000    -5.300000000
C    -0.414000000     4.194000000    -6.075000000
H    -0.662000000     5.221000000    -5.818000000
C     0.457000000     4.010000000    -7.161000000
H     0.961000000     4.870000000    -7.595000000
C     0.723000000     2.682000000    -7.492000000
H     1.326000000     2.493000000    -8.376000000
C     0.007000000     1.601000000    -6.944000000
O     0.070000000     0.328000000    -7.407000000
C     0.626000000    -0.750000000    -6.709000000
C     0.276000000    -2.071000000    -6.940000000
H    -0.455000000    -2.300000000    -7.712000000
C     0.765000000    -3.084000000    -6.132000000
O     0.120000000    -4.285000000    -6.283000000
C    -0.130000000    -5.061000000    -5.192000000
C     0.423000000    -6.304000000    -5.058000000
H     1.100000000    -6.744000000    -5.786000000
C     0.110000000    -7.131000000    -3.977000000
H     0.588000000    -8.086000000    -3.775000000
C    -0.721000000    -6.526000000    -2.965000000
H    -0.868000000    -7.034000000    -2.016000000
C    -1.393000000    -5.342000000    -3.138000000
C    -1.058000000    -4.569000000    -4.249000000
H    -1.560000000    -3.610000000    -4.351000000
C    -1.612000000     0.628000000     0.931000000
H    -2.190000000     1.193000000     1.657000000
C    -0.235000000     0.627000000     1.028000000
H     0.248000000     1.192000000     1.821000000
C     0.528000000    -0.058000000     0.096000000
H     1.729000000    -0.041000000     0.100000000
C    -0.106000000    -0.801000000    -0.858000000
H     0.548000000    -1.233000000    -1.611000000
C    -1.539000000    -0.884000000    -0.949000000
H    -2.111000000    -1.515000000    -1.625000000
C    -2.296000000    -0.171000000    -0.041000000
C    -3.792000000     0.063000000    -0.176000000
O    -4.274000000     0.121000000    -1.312000000
O    -4.502000000     0.151000000     0.829000000
O    -5.674000000    -1.577000000    -2.909000000
H    -5.788000000    -1.033000000    -3.688000000
H    -4.995000000    -1.131000000    -2.402000000
O    -6.595000000     5.522000000    -1.092000000
H    -6.043000000     6.303000000    -1.141000000
H    -6.060000000     4.879000000    -0.627000000
O    -9.253000000    -0.357000000    -0.771000000
H    -9.075000000    -1.097000000    -0.190000000
H    -8.536000000     0.256000000    -0.605000000
O    -6.774000000    -0.070000000    -4.938000000
H    -7.722000000    -0.109000000    -5.062000000
H    -6.429000000     0.166000000    -5.799000000
O    -6.024000000     2.380000000    -1.873000000
H    -6.256000000     2.382000000    -2.802000000
H    -5.463000000     1.612000000    -1.768000000
O    -3.118000000    -1.621000000    -4.895000000
H    -2.978000000    -1.533000000    -5.838000000
H    -3.566000000    -2.462000000    -4.798000000
O    -6.066000000    -4.881000000    -3.083000000
H    -6.899000000    -4.515000000    -3.383000000
H    -5.969000000    -4.552000000    -2.189000000
O    -7.519000000    -2.727000000    -5.498000000
H    -6.990000000    -1.996000000    -5.179000000
H    -8.423000000    -2.454000000    -5.341000000
O    -4.804000000    -4.005000000    -5.419000000
H    -5.040000000    -4.042000000    -4.492000000
H    -5.637000000    -4.096000000    -5.882000000
O    -3.802000000     0.794000000    -3.755000000
H    -3.745000000     0.736000000    -2.802000000
H    -3.450000000    -0.039000000    -4.068000000
O    -8.058000000    -2.335000000    -2.511000000
H    -7.243000000    -1.953000000    -2.837000000
H    -8.591000000    -1.582000000    -2.257000000
O    -4.715000000     2.101000000    -5.898000000
H    -4.188000000     1.629000000    -6.544000000
H    -4.456000000     1.725000000    -5.057000000
O   -10.832000000     2.695000000     1.000000000
H   -11.593000000     2.367000000     0.521000000
H   -10.098000000     2.570000000     0.399000000
O    -8.226000000     2.207000000    -0.060000000
H    -7.542000000     1.867000000     0.517000000
H    -7.750000000     2.566000000    -0.809000000
O    -7.880000000     3.278000000     3.233000000
H    -7.383000000     2.694000000     2.661000000
H    -8.787000000     2.986000000     3.143000000
O    -6.796000000    -4.511000000    -0.351000000
H    -6.691000000    -4.854000000     0.537000000
H    -6.705000000    -3.563000000    -0.254000000
O    -6.444000000     0.933000000     2.357000000
H    -5.800000000     0.538000000     1.768000000
H    -6.159000000     0.673000000     3.233000000
O    -9.101000000    -2.592000000     2.466000000
H    -8.432000000    -1.998000000     2.128000000
H    -8.609000000    -3.268000000     2.931000000
O    -6.809000000    -1.595000000     0.250000000
H    -6.158000000    -1.013000000     0.643000000
H    -6.579000000    -1.620000000    -0.679000000
