215
-1458.57217
C    -3.146000000     3.023000000     3.140000000
H    -2.417000000     3.826000000     3.210000000
C    -2.791000000     1.775000000     3.614000000
C    -3.749000000     0.755000000     3.541000000
H    -3.464000000    -0.280000000     3.710000000
C    -1.300000000     1.315000000     3.849000000
O    -0.552000000     2.496000000     4.295000000
H    -0.925000000     1.005000000     2.862000000
O    -1.188000000     0.224000000     4.852000000
C    -0.351000000    -0.779000000     4.495000000
C    -0.856000000    -1.952000000     3.987000000
H    -1.914000000    -2.066000000     3.762000000
C     0.046000000    -2.863000000     3.542000000
O    -0.412000000    -4.010000000     2.919000000
C     1.469000000    -2.659000000     3.669000000
C     2.371000000    -3.700000000     3.335000000
H     3.220000000    -3.692000000     4.021000000
C     2.832000000    -3.634000000     1.925000000
C     3.950000000    -2.808000000     1.646000000
H     4.555000000    -2.358000000     2.429000000
H     1.938000000    -4.691000000     3.485000000
C     1.954000000    -1.411000000     4.139000000
H     3.017000000    -1.232000000     4.275000000
C     1.034000000    -0.485000000     4.538000000
C     1.535000000     0.808000000     5.193000000
H     2.511000000     0.657000000     5.660000000
H     0.809000000     1.146000000     5.935000000
C     1.741000000     1.853000000     4.137000000
C     2.937000000     2.010000000     3.404000000
H     3.707000000     1.262000000     3.577000000
C     0.657000000     2.688000000     3.773000000
C     0.875000000     3.660000000     2.806000000
H     0.014000000     4.235000000     2.474000000
C     2.026000000     3.723000000     2.056000000
O     2.021000000     4.510000000     0.944000000
C     1.920000000     3.812000000    -0.323000000
C     1.000000000     4.412000000    -1.371000000
C     1.300000000     4.374000000    -2.715000000
H     2.221000000     3.874000000    -3.004000000
C    -0.245000000     5.016000000    -0.927000000
H    -0.504000000     5.025000000     0.129000000
O     3.281000000     3.659000000    -0.690000000
H     1.506000000     2.828000000    -0.059000000
C     3.087000000     2.956000000     2.432000000
C     4.448000000     2.998000000     1.838000000
H     5.278000000     2.848000000     2.532000000
H     4.734000000     4.011000000     1.548000000
C     4.465000000     2.036000000     0.719000000
C     4.979000000     0.743000000     0.863000000
H     5.389000000     0.396000000     1.808000000
C     3.909000000     2.443000000    -0.500000000
C     3.754000000     1.580000000    -1.538000000
H     3.318000000     1.890000000    -2.485000000
C     4.255000000     0.273000000    -1.425000000
O     4.117000000    -0.488000000    -2.485000000
C     3.014000000    -1.461000000    -2.389000000
C     2.031000000    -1.472000000    -3.625000000
C     2.099000000    -0.448000000    -4.599000000
H     2.934000000     0.245000000    -4.530000000
C     0.927000000    -2.264000000    -3.632000000
H     0.685000000    -2.979000000    -2.850000000
O     3.554000000    -2.738000000    -2.055000000
H     2.331000000    -1.026000000    -1.644000000
C     4.910000000    -0.152000000    -0.200000000
C     5.465000000    -1.515000000    -0.094000000
H     6.235000000    -1.564000000     0.678000000
H     5.977000000    -1.898000000    -0.980000000
C     4.247000000    -2.505000000     0.279000000
C     3.454000000    -3.145000000    -0.711000000
C     2.359000000    -3.895000000    -0.424000000
H     1.589000000    -4.192000000    -1.132000000
C     2.056000000    -4.156000000     0.888000000
O     0.892000000    -4.917000000     1.162000000
C    -0.319000000    -4.139000000     1.483000000
H    -0.159000000    -3.163000000     1.000000000
C    -1.541000000    -4.789000000     0.823000000
C    -2.782000000    -4.540000000     1.423000000
H    -2.831000000    -3.939000000     2.327000000
C    -1.469000000    -5.581000000    -0.332000000
H    -0.528000000    -5.957000000    -0.723000000
C    -2.707000000    -6.013000000    -0.841000000
O    -2.632000000    -6.622000000    -2.059000000
C    -3.932000000    -5.734000000    -0.239000000
H    -4.905000000    -6.094000000    -0.566000000
C    -3.989000000    -4.994000000     0.880000000
O    -5.234000000    -4.613000000     1.324000000
C    -5.388000000    -3.668000000     2.320000000
C    -5.493000000    -2.291000000     2.029000000
H    -5.551000000    -1.979000000     0.990000000
C    -5.335000000    -4.124000000     3.622000000
H    -5.169000000    -5.187000000     3.783000000
C    -5.419000000    -3.163000000     4.599000000
H    -5.425000000    -3.593000000     5.597000000
C    -5.539000000    -1.791000000     4.370000000
H    -5.540000000    -1.099000000     5.208000000
C    -5.602000000    -1.383000000     3.049000000
O    -5.809000000    -0.097000000     2.614000000
C    -5.022000000     0.989000000     2.966000000
C    -5.338000000     2.225000000     2.434000000
H    -6.356000000     2.360000000     2.076000000
C    -4.415000000     3.251000000     2.516000000
O    -4.857000000     4.485000000     2.024000000
C    -4.092000000     5.488000000     1.543000000
C    -3.486000000     5.357000000     0.282000000
H    -3.677000000     4.458000000    -0.297000000
C    -3.927000000     6.737000000     2.237000000
H    -4.347000000     6.813000000     3.237000000
C    -3.215000000     7.723000000     1.698000000
H    -3.082000000     8.691000000     2.174000000
C    -2.546000000     7.611000000     0.465000000
H    -1.908000000     8.388000000     0.053000000
C    -2.781000000     6.434000000    -0.258000000
O    -2.242000000     6.357000000    -1.581000000
C    -1.058000000     5.592000000    -1.907000000
C    -0.752000000     5.385000000    -3.257000000
H    -1.392000000     5.749000000    -4.056000000
C     0.444000000     4.772000000    -3.668000000
O     0.880000000     4.868000000    -4.937000000
C     1.637000000     3.986000000    -5.662000000
C     1.181000000     2.646000000    -5.822000000
H     0.127000000     2.451000000    -5.641000000
C     2.956000000     4.238000000    -5.966000000
H     3.302000000     5.246000000    -5.752000000
C     3.773000000     3.275000000    -6.593000000
H     4.798000000     3.427000000    -6.924000000
C     3.246000000     2.010000000    -6.850000000
H     3.810000000     1.252000000    -7.386000000
C     1.944000000     1.702000000    -6.445000000
O     1.329000000     0.528000000    -6.652000000
C     1.209000000    -0.417000000    -5.655000000
C     0.189000000    -1.302000000    -5.778000000
H    -0.523000000    -1.165000000    -6.588000000
C    -0.040000000    -2.160000000    -4.738000000
O    -1.140000000    -2.971000000    -4.783000000
C    -1.086000000    -4.328000000    -4.453000000
C    -0.515000000    -5.233000000    -5.226000000
H     0.040000000    -4.920000000    -6.107000000
C    -0.449000000    -6.616000000    -4.963000000
H     0.037000000    -7.362000000    -5.586000000
C    -1.223000000    -7.086000000    -3.865000000
H    -1.266000000    -8.141000000    -3.604000000
C    -1.929000000    -6.149000000    -3.129000000
C    -1.806000000    -4.795000000    -3.371000000
H    -2.307000000    -4.198000000    -2.614000000
C    -2.392000000     1.089000000    -0.458000000
H    -3.098000000     1.910000000    -0.547000000
C    -1.111000000     1.283000000     0.064000000
H    -0.783000000     2.226000000     0.493000000
C    -0.107000000     0.382000000    -0.076000000
H     0.919000000     0.430000000     0.156000000
C    -0.379000000    -0.777000000    -0.779000000
H     0.397000000    -1.529000000    -0.899000000
C    -1.637000000    -0.971000000    -1.310000000
H    -1.778000000    -1.928000000    -1.805000000
C    -2.703000000    -0.132000000    -1.097000000
C    -4.098000000    -0.448000000    -1.588000000
O    -4.278000000    -1.532000000    -2.117000000
O    -5.052000000     0.210000000    -1.217000000
O    -3.094000000     1.293000000    -4.365000000
H    -3.514000000     0.434000000    -4.412000000
H    -2.867000000     1.499000000    -5.272000000
O    -4.651000000     0.252000000    -7.862000000
H    -5.038000000     0.284000000    -8.737000000
H    -5.397000000     0.132000000    -7.274000000
O    -8.944000000    -0.302000000    -0.338000000
H    -9.258000000     0.442000000    -0.852000000
H    -8.246000000    -0.684000000    -0.870000000
O    -2.670000000     1.866000000    -7.080000000
H    -3.376000000     1.251000000    -7.278000000
H    -2.338000000     2.134000000    -7.937000000
O    -5.033000000     2.366000000    -2.643000000
H    -4.246000000     2.341000000    -3.187000000
H    -5.070000000     1.502000000    -2.234000000
O    -4.162000000    -1.430000000    -4.788000000
H    -3.247000000    -1.665000000    -4.633000000
H    -4.578000000    -1.507000000    -3.929000000
O    -5.828000000    -3.290000000    -6.181000000
H    -5.121000000    -2.678000000    -5.978000000
H    -5.522000000    -4.131000000    -5.841000000
O    -6.343000000     0.820000000    -5.501000000
H    -6.948000000     0.335000000    -6.063000000
H    -6.532000000     0.504000000    -4.618000000
O    -8.212000000    -2.862000000    -4.996000000
H    -8.210000000    -3.315000000    -4.152000000
H    -7.316000000    -2.953000000    -5.319000000
O    -4.981000000    -5.365000000    -4.378000000
H    -4.682000000    -6.258000000    -4.207000000
H    -5.174000000    -5.007000000    -3.511000000
O    -9.401000000     2.111000000    -1.463000000
H    -8.486000000     2.130000000    -1.184000000
H    -9.408000000     2.582000000    -2.296000000
O    -8.595000000     0.545000000     2.196000000
H    -8.555000000     0.188000000     1.309000000
H    -7.701000000     0.835000000     2.378000000
O    -5.441000000     3.419000000    -5.738000000
H    -4.771000000     3.314000000    -6.414000000
H    -5.641000000     2.526000000    -5.459000000
O    -6.908000000     2.034000000    -0.637000000
H    -6.263000000     1.342000000    -0.784000000
H    -6.523000000     2.810000000    -1.043000000
O    -7.041000000    -1.426000000    -2.052000000
H    -6.746000000    -2.323000000    -1.899000000
H    -6.306000000    -0.881000000    -1.771000000
O    -6.570000000     4.737000000    -1.997000000
H    -6.001000000     4.024000000    -2.288000000
H    -6.186000000     5.523000000    -2.385000000
O    -8.331000000    -4.738000000    -2.147000000
H    -8.806000000    -4.321000000    -1.428000000
H    -7.415000000    -4.505000000    -1.996000000
O    -5.456000000    -3.837000000    -2.115000000
H    -5.014000000    -3.003000000    -2.278000000
H    -5.201000000    -4.072000000    -1.223000000
O    -8.675000000    -0.367000000    -3.810000000
H    -7.928000000    -0.482000000    -3.222000000
H    -8.668000000    -1.149000000    -4.361000000
