215
-1449.83940
C    -2.991000000     3.134000000     3.306000000
H    -2.241000000     3.921000000     3.324000000
C    -2.497000000     1.782000000     3.602000000
C    -3.414000000     0.764000000     3.315000000
H    -3.225000000    -0.255000000     3.643000000
C    -1.126000000     1.374000000     3.997000000
O    -0.403000000     2.475000000     4.532000000
H    -0.619000000     1.098000000     3.061000000
O    -1.107000000     0.274000000     4.882000000
C    -0.234000000    -0.709000000     4.473000000
C    -0.746000000    -1.869000000     3.878000000
H    -1.828000000    -1.934000000     3.794000000
C     0.063000000    -2.964000000     3.494000000
O    -0.430000000    -4.110000000     2.913000000
C     1.445000000    -2.802000000     3.599000000
C     2.462000000    -3.919000000     3.329000000
H     3.359000000    -3.812000000     3.944000000
C     2.796000000    -3.769000000     1.837000000
C     3.810000000    -2.939000000     1.394000000
H     4.464000000    -2.435000000     2.102000000
H     2.018000000    -4.883000000     3.583000000
C     1.953000000    -1.615000000     4.131000000
H     3.025000000    -1.445000000     4.067000000
C     1.142000000    -0.618000000     4.635000000
C     1.792000000     0.633000000     5.332000000
H     2.742000000     0.377000000     5.805000000
H     1.129000000     0.960000000     6.135000000
C     1.963000000     1.796000000     4.382000000
C     3.163000000     1.939000000     3.697000000
H     4.067000000     1.383000000     3.933000000
C     0.883000000     2.605000000     4.074000000
C     0.935000000     3.516000000     2.978000000
H     0.065000000     4.135000000     2.772000000
C     2.170000000     3.671000000     2.327000000
O     2.095000000     4.499000000     1.125000000
C     2.007000000     3.690000000    -0.063000000
C     1.054000000     4.358000000    -1.080000000
C     1.429000000     4.381000000    -2.466000000
H     2.430000000     4.067000000    -2.747000000
C    -0.191000000     4.937000000    -0.709000000
H    -0.530000000     5.081000000     0.314000000
O     3.345000000     3.598000000    -0.560000000
H     1.617000000     2.680000000     0.128000000
C     3.273000000     2.892000000     2.683000000
C     4.560000000     2.805000000     1.866000000
H     5.336000000     2.433000000     2.538000000
H     4.835000000     3.808000000     1.533000000
C     4.521000000     1.872000000     0.666000000
C     4.903000000     0.540000000     0.664000000
H     5.351000000     0.139000000     1.570000000
C     3.931000000     2.376000000    -0.521000000
C     3.942000000     1.573000000    -1.626000000
H     3.492000000     1.953000000    -2.540000000
C     4.255000000     0.215000000    -1.638000000
O     3.815000000    -0.520000000    -2.761000000
C     2.669000000    -1.436000000    -2.513000000
C     1.718000000    -1.423000000    -3.714000000
C     1.892000000    -0.481000000    -4.778000000
H     2.713000000     0.227000000    -4.696000000
C     0.701000000    -2.382000000    -3.924000000
H     0.603000000    -3.141000000    -3.152000000
O     3.086000000    -2.799000000    -2.187000000
H     2.129000000    -1.069000000    -1.627000000
C     4.807000000    -0.267000000    -0.481000000
C     5.101000000    -1.760000000    -0.417000000
H     5.974000000    -1.799000000     0.238000000
H     5.470000000    -2.152000000    -1.367000000
C     3.879000000    -2.525000000     0.015000000
C     3.091000000    -3.172000000    -0.916000000
C     2.116000000    -4.055000000    -0.486000000
H     1.529000000    -4.531000000    -1.267000000
C     1.936000000    -4.387000000     0.863000000
O     0.737000000    -5.024000000     1.126000000
C    -0.421000000    -4.196000000     1.478000000
H    -0.267000000    -3.204000000     1.028000000
C    -1.735000000    -4.815000000     0.908000000
C    -2.892000000    -4.689000000     1.666000000
H    -2.972000000    -4.329000000     2.689000000
C    -1.721000000    -5.275000000    -0.357000000
H    -0.789000000    -5.468000000    -0.880000000
C    -2.886000000    -5.753000000    -0.999000000
O    -2.865000000    -6.482000000    -2.166000000
C    -4.085000000    -5.686000000    -0.236000000
H    -4.947000000    -6.249000000    -0.585000000
C    -4.124000000    -5.073000000     1.033000000
O    -5.347000000    -4.773000000     1.536000000
C    -5.493000000    -3.704000000     2.377000000
C    -5.414000000    -2.376000000     2.011000000
H    -5.415000000    -2.086000000     0.964000000
C    -5.669000000    -3.995000000     3.708000000
H    -5.668000000    -5.043000000     3.999000000
C    -5.722000000    -3.004000000     4.725000000
H    -5.724000000    -3.284000000     5.776000000
C    -5.617000000    -1.646000000     4.354000000
H    -5.650000000    -0.812000000     5.051000000
C    -5.501000000    -1.344000000     2.959000000
O    -5.593000000    -0.021000000     2.546000000
C    -4.700000000     1.006000000     2.869000000
C    -5.168000000     2.290000000     2.577000000
H    -6.168000000     2.438000000     2.177000000
C    -4.290000000     3.391000000     2.741000000
O    -4.569000000     4.715000000     2.439000000
C    -3.742000000     5.678000000     1.868000000
C    -3.288000000     5.389000000     0.555000000
H    -3.482000000     4.413000000     0.119000000
C    -3.601000000     6.948000000     2.414000000
H    -4.051000000     7.168000000     3.379000000
C    -2.835000000     7.873000000     1.752000000
H    -2.743000000     8.859000000     2.200000000
C    -2.258000000     7.604000000     0.552000000
H    -1.795000000     8.406000000    -0.017000000
C    -2.528000000     6.398000000    -0.106000000
O    -2.188000000     6.143000000    -1.377000000
C    -1.044000000     5.451000000    -1.690000000
C    -0.670000000     5.402000000    -3.031000000
H    -1.377000000     5.748000000    -3.781000000
C     0.557000000     4.820000000    -3.421000000
O     1.039000000     5.008000000    -4.769000000
C     1.653000000     4.141000000    -5.624000000
C     1.299000000     2.758000000    -5.654000000
H     0.802000000     2.333000000    -4.786000000
C     2.568000000     4.605000000    -6.526000000
H     2.801000000     5.659000000    -6.653000000
C     3.089000000     3.699000000    -7.515000000
H     3.656000000     4.192000000    -8.300000000
C     2.709000000     2.365000000    -7.562000000
H     3.119000000     1.627000000    -8.246000000
C     1.842000000     1.861000000    -6.630000000
O     1.324000000     0.583000000    -6.761000000
C     1.056000000    -0.319000000    -5.799000000
C     0.021000000    -1.230000000    -5.903000000
H    -0.610000000    -1.231000000    -6.788000000
C    -0.155000000    -2.278000000    -4.985000000
O    -1.223000000    -3.176000000    -5.177000000
C    -1.136000000    -4.458000000    -4.649000000
C    -0.122000000    -5.317000000    -5.073000000
H     0.577000000    -4.984000000    -5.836000000
C    -0.013000000    -6.530000000    -4.468000000
H     0.816000000    -7.198000000    -4.688000000
C    -0.931000000    -6.929000000    -3.479000000
H    -0.957000000    -7.881000000    -2.955000000
C    -2.046000000    -6.106000000    -3.183000000
C    -2.094000000    -4.833000000    -3.752000000
H    -2.866000000    -4.135000000    -3.436000000
C    -2.326000000     1.153000000     0.064000000
H    -2.813000000     2.030000000     0.483000000
C    -0.999000000     1.001000000     0.324000000
H    -0.520000000     1.803000000     0.880000000
C    -0.226000000    -0.104000000    -0.101000000
H     0.835000000    -0.120000000     0.088000000
C    -0.920000000    -1.039000000    -0.893000000
H    -0.437000000    -1.942000000    -1.258000000
C    -2.283000000    -0.898000000    -1.242000000
H    -2.809000000    -1.553000000    -1.932000000
C    -2.980000000     0.218000000    -0.749000000
C    -4.370000000     0.555000000    -1.194000000
O    -4.981000000    -0.328000000    -1.799000000
O    -4.763000000     1.684000000    -1.062000000
O    -6.653000000     1.468000000    -6.621000000
H    -6.596000000     0.535000000    -6.417000000
H    -6.242000000     1.903000000    -5.874000000
O    -2.780000000     4.027000000    -4.831000000
H    -1.997000000     3.502000000    -4.993000000
H    -3.429000000     3.399000000    -4.513000000
O    -6.498000000     6.489000000    -0.590000000
H    -6.816000000     7.219000000    -1.121000000
H    -6.386000000     5.771000000    -1.213000000
O    -9.479000000    -1.833000000    -0.242000000
H   -10.197000000    -1.356000000    -0.658000000
H    -8.700000000    -1.567000000    -0.731000000
O    -3.912000000     0.617000000    -6.069000000
H    -4.020000000     0.017000000    -6.807000000
H    -3.458000000     1.374000000    -6.440000000
O    -4.584000000     2.157000000    -3.949000000
H    -4.809000000     1.615000000    -4.705000000
H    -4.804000000     1.614000000    -3.192000000
O    -8.116000000    -4.413000000    -3.572000000
H    -7.756000000    -3.553000000    -3.789000000
H    -7.936000000    -4.519000000    -2.638000000
O    -4.211000000    -1.616000000    -3.957000000
H    -4.028000000    -0.901000000    -4.567000000
H    -4.418000000    -1.178000000    -3.131000000
O    -4.656000000    -3.660000000    -6.324000000
H    -4.364000000    -3.316000000    -5.480000000
H    -4.478000000    -2.954000000    -6.946000000
O    -6.289000000    -1.267000000    -6.292000000
H    -5.491000000    -1.212000000    -6.817000000
H    -6.744000000    -2.039000000    -6.629000000
O    -4.598000000     6.168000000    -4.164000000
H    -3.993000000     6.892000000    -4.002000000
H    -4.034000000     5.438000000    -4.422000000
O    -9.024000000     0.425000000     1.456000000
H    -8.914000000     0.190000000     0.534000000
H    -9.426000000    -0.347000000     1.853000000
O   -10.159000000     1.400000000    -2.510000000
H    -9.305000000     1.747000000    -2.254000000
H    -9.981000000     0.874000000    -3.289000000
O    -7.391000000     2.406000000    -1.314000000
H    -6.498000000     2.070000000    -1.389000000
H    -7.337000000     3.306000000    -1.636000000
O    -7.546000000    -0.326000000    -1.285000000
H    -7.720000000     0.613000000    -1.338000000
H    -6.591000000    -0.393000000    -1.278000000
O    -6.100000000     4.350000000    -2.704000000
H    -5.458000000     3.646000000    -2.801000000
H    -5.846000000     4.997000000    -3.362000000
O    -7.179000000    -5.054000000    -1.055000000
H    -7.492000000    -4.679000000    -0.232000000
H    -6.488000000    -4.458000000    -1.342000000
O    -5.449000000    -3.142000000    -1.414000000
H    -5.198000000    -2.242000000    -1.620000000
H    -4.851000000    -3.402000000    -0.713000000
O    -7.270000000    -1.714000000    -3.842000000
H    -6.892000000    -1.177000000    -3.145000000
H    -6.687000000    -1.580000000    -4.589000000
