215
-1458.15943
C    -3.005000000     2.791000000     3.816000000
H    -2.264000000     3.549000000     4.059000000
C    -2.504000000     1.491000000     3.627000000
C    -3.375000000     0.479000000     3.224000000
H    -3.168000000    -0.585000000     3.299000000
C    -1.103000000     1.100000000     3.925000000
O    -0.370000000     2.160000000     4.600000000
H    -0.518000000     0.911000000     3.013000000
O    -1.053000000    -0.139000000     4.685000000
C    -0.046000000    -1.057000000     4.452000000
C    -0.507000000    -2.198000000     3.804000000
H    -1.578000000    -2.370000000     3.721000000
C     0.422000000    -3.132000000     3.369000000
O    -0.112000000    -4.190000000     2.579000000
C     1.797000000    -2.943000000     3.540000000
C     2.882000000    -3.895000000     2.888000000
H     3.862000000    -3.770000000     3.354000000
C     3.093000000    -3.607000000     1.417000000
C     4.143000000    -2.725000000     1.054000000
H     4.778000000    -2.286000000     1.819000000
H     2.597000000    -4.921000000     3.129000000
C     2.272000000    -1.719000000     4.102000000
H     3.337000000    -1.501000000     4.108000000
C     1.379000000    -0.777000000     4.622000000
C     1.867000000     0.535000000     5.239000000
H     2.890000000     0.327000000     5.558000000
H     1.306000000     0.800000000     6.138000000
C     1.944000000     1.644000000     4.243000000
C     3.044000000     1.785000000     3.441000000
H     3.850000000     1.064000000     3.555000000
C     0.871000000     2.478000000     4.084000000
C     0.957000000     3.582000000     3.222000000
H     0.170000000     4.302000000     3.015000000
C     2.033000000     3.682000000     2.393000000
O     1.932000000     4.448000000     1.295000000
C     1.682000000     3.853000000    -0.040000000
C     0.689000000     4.627000000    -0.822000000
C     0.823000000     4.779000000    -2.198000000
H     1.761000000     4.601000000    -2.719000000
C    -0.583000000     4.980000000    -0.284000000
H    -0.768000000     4.733000000     0.758000000
O     2.904000000     3.753000000    -0.849000000
H     1.270000000     2.842000000     0.093000000
C     3.143000000     2.829000000     2.503000000
C     4.338000000     3.009000000     1.620000000
H     5.278000000     2.839000000     2.150000000
H     4.483000000     4.057000000     1.348000000
C     4.187000000     2.102000000     0.411000000
C     4.918000000     0.921000000     0.388000000
H     5.364000000     0.540000000     1.303000000
C     3.493000000     2.507000000    -0.723000000
C     3.495000000     1.671000000    -1.806000000
H     2.947000000     1.993000000    -2.688000000
C     4.109000000     0.439000000    -1.811000000
O     3.820000000    -0.335000000    -2.922000000
C     2.842000000    -1.297000000    -2.778000000
C     1.930000000    -1.263000000    -4.040000000
C     1.901000000    -0.101000000    -4.863000000
H     2.619000000     0.708000000    -4.756000000
C     0.894000000    -2.202000000    -4.143000000
H     0.892000000    -3.050000000    -3.462000000
O     3.548000000    -2.560000000    -2.550000000
H     2.210000000    -1.030000000    -1.919000000
C     4.873000000     0.051000000    -0.691000000
C     5.400000000    -1.332000000    -0.630000000
H     6.275000000    -1.424000000     0.017000000
H     5.910000000    -1.613000000    -1.553000000
C     4.322000000    -2.319000000    -0.277000000
C     3.562000000    -2.960000000    -1.256000000
C     2.521000000    -3.861000000    -0.873000000
H     2.021000000    -4.473000000    -1.619000000
C     2.279000000    -4.158000000     0.438000000
O     1.205000000    -4.966000000     0.813000000
C    -0.018000000    -4.301000000     1.138000000
H     0.085000000    -3.321000000     0.650000000
C    -1.264000000    -5.048000000     0.597000000
C    -2.485000000    -4.810000000     1.161000000
H    -2.453000000    -4.296000000     2.118000000
C    -1.255000000    -5.607000000    -0.652000000
H    -0.328000000    -5.683000000    -1.216000000
C    -2.459000000    -6.026000000    -1.254000000
O    -2.400000000    -6.593000000    -2.521000000
C    -3.672000000    -5.826000000    -0.663000000
H    -4.594000000    -6.015000000    -1.206000000
C    -3.722000000    -5.250000000     0.644000000
O    -4.944000000    -4.793000000     1.127000000
C    -5.147000000    -3.865000000     2.178000000
C    -5.199000000    -2.532000000     1.819000000
H    -5.026000000    -2.293000000     0.773000000
C    -5.144000000    -4.302000000     3.474000000
H    -5.042000000    -5.376000000     3.605000000
C    -5.462000000    -3.335000000     4.472000000
H    -5.523000000    -3.633000000     5.516000000
C    -5.641000000    -1.980000000     4.102000000
H    -5.860000000    -1.353000000     4.962000000
C    -5.493000000    -1.597000000     2.825000000
O    -5.540000000    -0.281000000     2.483000000
C    -4.689000000     0.754000000     2.921000000
C    -5.116000000     2.063000000     2.978000000
H    -6.125000000     2.426000000     2.801000000
C    -4.315000000     3.021000000     3.448000000
O    -4.784000000     4.317000000     3.485000000
C    -4.254000000     5.318000000     2.743000000
C    -3.877000000     5.030000000     1.394000000
H    -4.503000000     4.236000000     0.993000000
C    -3.627000000     6.430000000     3.346000000
H    -3.659000000     6.550000000     4.426000000
C    -2.750000000     7.240000000     2.574000000
H    -2.222000000     8.086000000     3.007000000
C    -2.496000000     6.984000000     1.267000000
H    -1.966000000     7.713000000     0.660000000
C    -3.103000000     5.907000000     0.674000000
O    -2.889000000     5.651000000    -0.693000000
C    -1.604000000     5.419000000    -1.116000000
C    -1.454000000     5.672000000    -2.467000000
H    -2.255000000     6.091000000    -3.071000000
C    -0.203000000     5.299000000    -3.008000000
O    -0.008000000     5.291000000    -4.400000000
C     0.842000000     4.510000000    -5.078000000
C     0.332000000     3.252000000    -5.512000000
H    -0.699000000     3.031000000    -5.250000000
C     2.123000000     4.940000000    -5.308000000
H     2.533000000     5.859000000    -4.899000000
C     2.932000000     4.121000000    -6.099000000
H     3.913000000     4.474000000    -6.405000000
C     2.507000000     2.843000000    -6.497000000
H     3.213000000     2.228000000    -7.049000000
C     1.230000000     2.405000000    -6.155000000
O     0.768000000     1.210000000    -6.616000000
C     0.880000000     0.040000000    -5.857000000
C    -0.112000000    -0.945000000    -5.978000000
H    -0.769000000    -0.908000000    -6.843000000
C    -0.082000000    -2.074000000    -5.137000000
O    -1.105000000    -2.910000000    -5.154000000
C    -1.017000000    -4.274000000    -4.931000000
C    -0.259000000    -5.077000000    -5.784000000
H     0.341000000    -4.784000000    -6.641000000
C    -0.199000000    -6.447000000    -5.485000000
H     0.425000000    -7.123000000    -6.064000000
C    -0.978000000    -6.996000000    -4.438000000
H    -0.837000000    -8.049000000    -4.208000000
C    -1.703000000    -6.138000000    -3.581000000
C    -1.771000000    -4.735000000    -3.834000000
H    -2.363000000    -4.035000000    -3.250000000
C    -2.486000000     0.952000000    -0.086000000
H    -3.099000000     1.780000000     0.260000000
C    -1.190000000     1.159000000     0.093000000
H    -0.871000000     1.984000000     0.725000000
C    -0.279000000     0.294000000    -0.496000000
H     0.828000000     0.503000000    -0.405000000
C    -0.730000000    -0.870000000    -1.139000000
H     0.105000000    -1.482000000    -1.470000000
C    -2.079000000    -1.116000000    -1.278000000
H    -2.436000000    -1.982000000    -1.830000000
C    -2.962000000    -0.184000000    -0.715000000
C    -4.396000000    -0.343000000    -1.013000000
O    -4.844000000    -1.353000000    -1.588000000
O    -5.038000000     0.693000000    -0.963000000
O    -2.028000000     1.174000000    -3.767000000
H    -2.251000000     1.918000000    -3.208000000
H    -1.223000000     0.821000000    -3.387000000
O    -3.005000000     0.546000000    -6.551000000
H    -3.865000000     0.773000000    -6.198000000
H    -2.384000000     0.940000000    -5.938000000
O    -5.041000000     2.048000000    -6.016000000
H    -5.746000000     1.611000000    -5.539000000
H    -5.441000000     2.850000000    -6.352000000
O    -3.892000000     3.063000000    -2.059000000
H    -3.718000000     3.716000000    -1.381000000
H    -4.329000000     2.348000000    -1.596000000
O    -4.146000000    -0.475000000    -3.960000000
H    -3.350000000     0.057000000    -3.970000000
H    -4.410000000    -0.494000000    -3.040000000
O    -4.563000000    -2.748000000    -5.434000000
H    -4.330000000    -1.860000000    -5.164000000
H    -4.560000000    -3.254000000    -4.622000000
O    -3.694000000     3.910000000    -4.583000000
H    -3.727000000     3.554000000    -3.695000000
H    -3.944000000     3.177000000    -5.144000000
O    -9.496000000     3.728000000    -1.434000000
H    -8.556000000     3.609000000    -1.566000000
H    -9.609000000     4.675000000    -1.356000000
O    -6.858000000    -0.606000000    -4.769000000
H    -6.906000000    -1.486000000    -5.141000000
H    -5.991000000    -0.563000000    -4.366000000
O    -5.277000000    -5.816000000    -4.729000000
H    -5.565000000    -6.594000000    -4.251000000
H    -5.253000000    -5.124000000    -4.068000000
O   -10.363000000     1.288000000    -0.831000000
H    -9.932000000     0.885000000    -1.586000000
H    -9.992000000     2.169000000    -0.785000000
O    -8.904000000     0.464000000     2.313000000
H    -8.416000000     0.898000000     1.613000000
H    -8.447000000     0.716000000     3.115000000
O    -9.916000000    -2.502000000     1.443000000
H    -9.245000000    -1.820000000     1.456000000
H   -10.683000000    -2.077000000     1.060000000
O    -7.097000000     1.672000000     0.324000000
H    -6.313000000     1.206000000     0.033000000
H    -7.119000000     2.463000000    -0.214000000
O    -7.444000000    -1.070000000    -1.119000000
H    -6.534000000    -1.063000000    -1.417000000
H    -7.465000000    -0.435000000    -0.403000000
O    -6.932000000     3.924000000    -1.434000000
H    -6.482000000     4.075000000    -2.265000000
H    -6.872000000     4.762000000    -0.973000000
O    -7.864000000    -3.674000000    -2.153000000
H    -8.342000000    -3.982000000    -1.383000000
H    -7.464000000    -2.851000000    -1.874000000
O    -4.993000000    -3.751000000    -2.931000000
H    -4.854000000    -2.884000000    -2.550000000
H    -5.798000000    -4.068000000    -2.520000000
O    -9.069000000     0.059000000    -3.010000000
H    -8.599000000    -0.221000000    -2.225000000
H    -8.429000000    -0.029000000    -3.717000000
