215
-1440.14754
C     3.709000000    -0.514000000    -4.239000000
H     3.865000000    -1.579000000    -4.391000000
C     3.861000000     0.077000000    -3.038000000
C     3.662000000     1.464000000    -2.948000000
H     3.657000000     1.906000000    -1.955000000
C     3.967000000    -0.769000000    -1.749000000
O     4.086000000    -2.156000000    -1.952000000
H     2.944000000    -0.689000000    -1.353000000
O     4.884000000    -0.233000000    -0.707000000
C     4.515000000    -0.088000000     0.616000000
C     4.248000000     1.196000000     1.052000000
H     4.324000000     2.091000000     0.439000000
C     3.816000000     1.280000000     2.389000000
O     3.301000000     2.503000000     2.699000000
C     3.598000000     0.176000000     3.163000000
C     3.106000000     0.177000000     4.564000000
H     3.404000000    -0.678000000     5.174000000
C     1.601000000     0.067000000     4.620000000
C     0.992000000    -1.161000000     4.730000000
H     1.614000000    -2.051000000     4.764000000
H     3.415000000     1.104000000     5.050000000
C     3.795000000    -1.111000000     2.659000000
H     3.584000000    -2.000000000     3.248000000
C     4.323000000    -1.266000000     1.366000000
C     4.779000000    -2.643000000     0.832000000
H     5.182000000    -3.198000000     1.681000000
H     5.603000000    -2.465000000     0.138000000
C     3.689000000    -3.401000000     0.157000000
C     2.786000000    -4.137000000     0.866000000
H     2.835000000    -4.395000000     1.920000000
C     3.351000000    -3.087000000    -1.221000000
C     2.216000000    -3.666000000    -1.803000000
H     1.917000000    -3.343000000    -2.796000000
C     1.352000000    -4.456000000    -1.016000000
O     0.163000000    -4.811000000    -1.627000000
C    -1.041000000    -4.070000000    -1.358000000
C    -1.803000000    -3.571000000    -2.625000000
C    -3.195000000    -3.621000000    -2.662000000
H    -3.779000000    -3.939000000    -1.802000000
C    -1.083000000    -3.140000000    -3.751000000
H     0.003000000    -3.176000000    -3.713000000
O    -1.751000000    -4.836000000    -0.413000000
H    -0.715000000    -3.134000000    -0.880000000
C     1.624000000    -4.684000000     0.306000000
C     0.624000000    -5.486000000     1.054000000
H     1.171000000    -6.005000000     1.845000000
H     0.373000000    -6.360000000     0.449000000
C    -0.543000000    -4.654000000     1.613000000
C    -0.422000000    -4.130000000     2.908000000
H     0.423000000    -4.421000000     3.527000000
C    -1.705000000    -4.352000000     0.865000000
C    -2.729000000    -3.559000000     1.430000000
H    -3.647000000    -3.215000000     0.961000000
C    -2.551000000    -3.011000000     2.749000000
O    -3.449000000    -2.029000000     3.099000000
C    -3.002000000    -0.637000000     3.023000000
C    -4.053000000     0.340000000     2.358000000
C    -4.644000000     0.008000000     1.121000000
H    -4.430000000    -0.956000000     0.667000000
C    -4.370000000     1.606000000     2.935000000
H    -4.041000000     1.903000000     3.927000000
O    -2.658000000    -0.126000000     4.288000000
H    -2.138000000    -0.720000000     2.347000000
C    -1.358000000    -3.225000000     3.442000000
C    -1.105000000    -2.581000000     4.813000000
H    -0.501000000    -3.257000000     5.421000000
H    -2.027000000    -2.529000000     5.396000000
C    -0.459000000    -1.248000000     4.648000000
C    -1.219000000    -0.098000000     4.488000000
C    -0.605000000     1.158000000     4.466000000
H    -1.103000000     2.104000000     4.269000000
C     0.756000000     1.234000000     4.486000000
O     1.296000000     2.407000000     4.071000000
C     1.820000000     2.648000000     2.727000000
H     1.232000000     2.030000000     2.033000000
C     1.499000000     4.108000000     2.222000000
C     2.349000000     4.824000000     1.288000000
H     3.219000000     4.359000000     0.830000000
C     0.404000000     4.746000000     2.808000000
H    -0.076000000     4.259000000     3.653000000
C    -0.026000000     5.974000000     2.362000000
O    -1.278000000     6.426000000     2.705000000
C     0.707000000     6.563000000     1.329000000
H     0.381000000     7.495000000     0.876000000
C     1.864000000     6.028000000     0.815000000
O     2.440000000     6.581000000    -0.318000000
C     3.294000000     5.978000000    -1.270000000
C     2.761000000     5.132000000    -2.234000000
H     1.707000000     4.879000000    -2.152000000
C     4.674000000     6.255000000    -1.190000000
H     5.099000000     6.842000000    -0.380000000
C     5.528000000     5.576000000    -2.042000000
H     6.600000000     5.748000000    -1.978000000
C     5.032000000     4.662000000    -3.039000000
H     5.740000000     4.031000000    -3.570000000
C     3.633000000     4.446000000    -3.100000000
O     3.120000000     3.646000000    -4.035000000
C     3.269000000     2.241000000    -4.069000000
C     3.249000000     1.545000000    -5.346000000
H     3.146000000     2.097000000    -6.278000000
C     3.469000000     0.204000000    -5.426000000
O     3.221000000    -0.369000000    -6.591000000
C     2.283000000    -1.368000000    -6.804000000
C     1.046000000    -1.216000000    -6.243000000
H     0.831000000    -0.292000000    -5.711000000
C     2.609000000    -2.571000000    -7.495000000
H     3.568000000    -2.693000000    -7.992000000
C     1.737000000    -3.590000000    -7.411000000
H     2.037000000    -4.525000000    -7.876000000
C     0.444000000    -3.471000000    -6.802000000
H    -0.276000000    -4.284000000    -6.847000000
C     0.052000000    -2.222000000    -6.303000000
O    -1.161000000    -1.971000000    -5.873000000
C    -1.774000000    -2.618000000    -4.822000000
C    -3.185000000    -2.639000000    -4.855000000
H    -3.670000000    -2.455000000    -5.810000000
C    -3.877000000    -3.206000000    -3.769000000
O    -5.228000000    -3.022000000    -3.783000000
C    -5.892000000    -2.546000000    -2.676000000
C    -5.691000000    -1.244000000    -2.238000000
H    -5.027000000    -0.546000000    -2.743000000
C    -6.646000000    -3.418000000    -1.922000000
H    -6.665000000    -4.484000000    -2.134000000
C    -7.260000000    -2.999000000    -0.709000000
H    -7.838000000    -3.652000000    -0.060000000
C    -7.075000000    -1.660000000    -0.316000000
H    -7.588000000    -1.300000000     0.571000000
C    -6.341000000    -0.772000000    -1.077000000
O    -6.126000000     0.535000000    -0.759000000
C    -5.449000000     0.938000000     0.434000000
C    -5.583000000     2.236000000     0.926000000
H    -6.148000000     3.042000000     0.465000000
C    -5.017000000     2.542000000     2.170000000
O    -5.316000000     3.736000000     2.761000000
C    -4.304000000     4.437000000     3.469000000
C    -4.248000000     4.484000000     4.888000000
H    -4.906000000     3.886000000     5.513000000
C    -3.221000000     5.106000000     5.555000000
H    -3.228000000     5.072000000     6.641000000
C    -2.199000000     5.694000000     4.810000000
H    -1.307000000     6.148000000     5.234000000
C    -2.187000000     5.691000000     3.409000000
C    -3.269000000     5.086000000     2.773000000
H    -3.285000000     5.113000000     1.687000000
C    -1.392000000    -0.009000000    -1.966000000
H    -1.491000000    -0.691000000    -2.806000000
C    -0.523000000    -0.291000000    -0.931000000
H     0.165000000    -1.129000000    -1.004000000
C    -0.575000000     0.424000000     0.256000000
H     0.063000000     0.138000000     1.096000000
C    -1.381000000     1.580000000     0.322000000
H    -1.430000000     2.085000000     1.283000000
C    -2.247000000     1.917000000    -0.762000000
H    -2.920000000     2.768000000    -0.700000000
C    -2.275000000     1.125000000    -1.862000000
C    -3.096000000     1.518000000    -3.005000000
O    -3.653000000     2.607000000    -2.992000000
O    -3.316000000     0.735000000    -3.921000000
O    -0.520000000     4.215000000    -4.067000000
H    -0.129000000     3.834000000    -3.280000000
H    -1.250000000     4.741000000    -3.741000000
O    -3.260000000     4.899000000    -8.620000000
H    -2.866000000     4.147000000    -8.179000000
H    -4.153000000     4.937000000    -8.280000000
O    -4.528000000     5.947000000    -4.583000000
H    -3.815000000     5.897000000    -3.946000000
H    -4.666000000     5.041000000    -4.859000000
O    -1.363000000     7.842000000    -1.296000000
H    -1.800000000     7.104000000    -1.722000000
H    -0.692000000     8.116000000    -1.921000000
O    -7.836000000     1.859000000    -2.865000000
H    -8.331000000     1.053000000    -2.715000000
H    -8.444000000     2.428000000    -3.338000000
O    -5.773000000     4.669000000    -8.136000000
H    -6.425000000     5.245000000    -8.535000000
H    -6.142000000     4.445000000    -7.282000000
O    -5.784000000     3.550000000    -1.976000000
H    -4.944000000     3.207000000    -2.280000000
H    -6.423000000     2.886000000    -2.235000000
O    -3.935000000    -0.125000000    -6.721000000
H    -3.713000000    -0.084000000    -5.791000000
H    -3.593000000     0.692000000    -7.085000000
O    -1.207000000     1.764000000    -5.518000000
H    -1.930000000     1.362000000    -5.037000000
H    -0.922000000     2.488000000    -4.961000000
O    -2.829000000     5.067000000    -2.548000000
H    -3.228000000     4.207000000    -2.680000000
H    -3.124000000     5.336000000    -1.678000000
O     0.433000000     2.582000000    -2.131000000
H    -0.166000000     2.191000000    -1.495000000
H     1.112000000     1.921000000    -2.260000000
O    -7.536000000     0.855000000    -5.637000000
H    -8.235000000     1.091000000    -5.029000000
H    -6.825000000     1.463000000    -5.433000000
O    -6.250000000    -1.473000000    -7.134000000
H    -6.532000000    -0.824000000    -6.489000000
H    -5.305000000    -1.339000000    -7.210000000
O    -4.598000000     5.652000000    -0.334000000
H    -5.098000000     5.034000000    -0.868000000
H    -5.042000000     5.649000000     0.514000000
O     1.217000000     4.036000000    -6.194000000
H     0.760000000     4.331000000    -5.407000000
H     0.957000000     3.120000000    -6.293000000
O    -2.356000000    -1.326000000    -8.815000000
H    -2.611000000    -2.234000000    -8.980000000
H    -2.766000000    -1.112000000    -7.977000000
O    -5.290000000     2.712000000    -4.999000000
H    -5.019000000     2.751000000    -4.082000000
H    -4.549000000     2.308000000    -5.451000000
O    -2.804000000     2.069000000    -8.318000000
H    -1.880000000     2.097000000    -8.067000000
H    -2.798000000     1.739000000    -9.216000000
O    -7.778000000     5.295000000    -3.227000000
H    -7.134000000     4.646000000    -2.945000000
H    -8.083000000     5.699000000    -2.415000000
