215
-1445.00430
C    -2.047000000     2.413000000     3.763000000
H    -1.496000000     3.134000000     3.165000000
C    -1.333000000     1.374000000     4.268000000
C    -1.918000000     0.223000000     4.778000000
H    -1.352000000    -0.622000000     5.163000000
C     0.179000000     1.416000000     4.081000000
O     0.699000000     2.735000000     4.178000000
H     0.323000000     1.052000000     3.053000000
O     0.759000000     0.449000000     4.953000000
C     1.662000000    -0.363000000     4.260000000
C     1.227000000    -1.637000000     3.992000000
H     0.220000000    -1.897000000     4.307000000
C     2.068000000    -2.480000000     3.338000000
O     1.534000000    -3.701000000     2.996000000
C     3.310000000    -2.079000000     2.897000000
C     4.171000000    -2.962000000     2.039000000
H     5.250000000    -2.832000000     2.151000000
C     3.805000000    -2.857000000     0.572000000
C     4.500000000    -1.905000000    -0.222000000
H     5.236000000    -1.235000000     0.216000000
H     3.966000000    -4.000000000     2.309000000
C     3.752000000    -0.787000000     3.220000000
H     4.648000000    -0.419000000     2.727000000
C     2.889000000     0.082000000     3.934000000
C     3.320000000     1.541000000     4.144000000
H     4.407000000     1.459000000     4.215000000
H     2.984000000     1.782000000     5.154000000
C     2.799000000     2.428000000     3.007000000
C     3.682000000     2.691000000     1.931000000
H     4.670000000     2.255000000     1.809000000
C     1.591000000     3.058000000     3.190000000
C     1.208000000     3.954000000     2.166000000
H     0.223000000     4.405000000     2.075000000
C     2.029000000     4.107000000     1.033000000
O     1.403000000     4.798000000    -0.010000000
C     1.038000000     4.031000000    -1.215000000
C    -0.396000000     4.550000000    -1.513000000
C    -0.967000000     4.051000000    -2.698000000
H    -0.493000000     3.345000000    -3.375000000
C    -1.195000000     5.320000000    -0.665000000
H    -0.820000000     5.660000000     0.297000000
O     1.892000000     4.237000000    -2.286000000
H     0.872000000     2.977000000    -0.947000000
C     3.300000000     3.560000000     0.914000000
C     4.164000000     3.832000000    -0.353000000
H     5.228000000     3.714000000    -0.140000000
H     4.134000000     4.877000000    -0.669000000
C     3.801000000     2.906000000    -1.475000000
C     4.491000000     1.670000000    -1.522000000
H     5.274000000     1.501000000    -0.787000000
C     2.843000000     3.232000000    -2.456000000
C     2.493000000     2.214000000    -3.355000000
H     1.661000000     2.385000000    -4.034000000
C     3.149000000     0.983000000    -3.314000000
O     2.565000000    -0.096000000    -4.014000000
C     1.714000000    -1.034000000    -3.457000000
C     0.553000000    -1.359000000    -4.338000000
C    -0.009000000    -0.456000000    -5.239000000
H     0.405000000     0.538000000    -5.392000000
C    -0.118000000    -2.629000000    -4.205000000
H     0.101000000    -3.345000000    -3.417000000
O     2.377000000    -2.277000000    -3.187000000
H     1.307000000    -0.789000000    -2.464000000
C     4.135000000     0.668000000    -2.398000000
C     4.822000000    -0.629000000    -2.337000000
H     5.801000000    -0.566000000    -1.857000000
H     5.012000000    -0.966000000    -3.359000000
C     4.048000000    -1.660000000    -1.493000000
C     2.985000000    -2.457000000    -2.011000000
C     2.383000000    -3.439000000    -1.205000000
H     1.637000000    -4.101000000    -1.638000000
C     2.823000000    -3.685000000     0.076000000
O     2.018000000    -4.521000000     0.852000000
C     0.999000000    -3.851000000     1.674000000
H     0.841000000    -2.839000000     1.273000000
C    -0.326000000    -4.466000000     1.442000000
C    -1.348000000    -4.391000000     2.397000000
H    -1.185000000    -3.833000000     3.315000000
C    -0.556000000    -5.271000000     0.295000000
H     0.248000000    -5.432000000    -0.419000000
C    -1.769000000    -5.857000000     0.058000000
O    -1.992000000    -6.731000000    -0.998000000
C    -2.843000000    -5.612000000     0.929000000
H    -3.785000000    -6.118000000     0.732000000
C    -2.613000000    -4.918000000     2.108000000
O    -3.647000000    -4.920000000     3.052000000
C    -3.479000000    -4.267000000     4.250000000
C    -3.685000000    -2.906000000     4.257000000
H    -4.099000000    -2.441000000     3.366000000
C    -2.895000000    -4.869000000     5.428000000
H    -2.538000000    -5.894000000     5.366000000
C    -2.696000000    -4.107000000     6.582000000
H    -2.251000000    -4.516000000     7.486000000
C    -3.087000000    -2.758000000     6.572000000
H    -3.031000000    -2.221000000     7.515000000
C    -3.473000000    -2.142000000     5.392000000
O    -4.006000000    -0.858000000     5.342000000
C    -3.307000000     0.172000000     4.836000000
C    -4.083000000     1.248000000     4.406000000
H    -5.169000000     1.274000000     4.425000000
C    -3.427000000     2.349000000     3.864000000
O    -4.159000000     3.448000000     3.487000000
C    -3.579000000     4.612000000     3.091000000
C    -3.859000000     4.953000000     1.776000000
H    -4.395000000     4.347000000     1.050000000
C    -2.935000000     5.550000000     3.955000000
H    -2.760000000     5.218000000     4.975000000
C    -2.515000000     6.766000000     3.518000000
H    -2.063000000     7.576000000     4.085000000
C    -2.498000000     6.969000000     2.138000000
H    -2.055000000     7.861000000     1.700000000
C    -3.207000000     6.129000000     1.278000000
O    -3.222000000     6.375000000    -0.101000000
C    -2.483000000     5.607000000    -0.980000000
C    -2.971000000     5.259000000    -2.237000000
H    -3.973000000     5.512000000    -2.574000000
C    -2.248000000     4.514000000    -3.075000000
O    -2.875000000     4.166000000    -4.260000000
C    -2.223000000     3.551000000    -5.345000000
C    -2.496000000     2.161000000    -5.598000000
H    -3.041000000     1.457000000    -4.975000000
C    -1.370000000     4.250000000    -6.114000000
H    -1.126000000     5.273000000    -5.836000000
C    -0.871000000     3.646000000    -7.314000000
H    -0.092000000     4.093000000    -7.928000000
C    -1.078000000     2.327000000    -7.483000000
H    -0.497000000     1.829000000    -8.255000000
C    -1.829000000     1.549000000    -6.641000000
O    -1.849000000     0.167000000    -6.791000000
C    -1.188000000    -0.734000000    -5.987000000
C    -1.696000000    -2.004000000    -5.892000000
H    -2.634000000    -2.195000000    -6.407000000
C    -1.220000000    -2.918000000    -4.965000000
O    -1.874000000    -4.114000000    -4.901000000
C    -1.457000000    -5.165000000    -4.216000000
C    -0.523000000    -6.036000000    -4.779000000
H    -0.205000000    -5.911000000    -5.811000000
C    -0.176000000    -7.198000000    -4.104000000
H     0.413000000    -7.939000000    -4.638000000
C    -0.733000000    -7.452000000    -2.883000000
H    -0.547000000    -8.453000000    -2.502000000
C    -1.586000000    -6.554000000    -2.230000000
C    -1.961000000    -5.417000000    -2.919000000
H    -2.607000000    -4.689000000    -2.435000000
C    -2.143000000     0.201000000     0.402000000
H    -2.833000000     0.085000000     1.234000000
C    -0.763000000    -0.021000000     0.510000000
H    -0.323000000    -0.472000000     1.396000000
C     0.056000000     0.315000000    -0.619000000
H     1.178000000     0.121000000    -0.534000000
C    -0.489000000     0.857000000    -1.784000000
H     0.130000000     1.123000000    -2.637000000
C    -1.903000000     1.088000000    -1.811000000
H    -2.384000000     1.562000000    -2.663000000
C    -2.715000000     0.806000000    -0.718000000
C    -4.235000000     1.092000000    -0.736000000
O    -4.728000000     1.677000000    -1.697000000
O    -4.873000000     0.362000000     0.009000000
O    -5.017000000    -2.436000000     0.954000000
H    -4.812000000    -1.650000000     0.448000000
H    -4.427000000    -3.105000000     0.607000000
O    -9.537000000    -0.023000000    -2.643000000
H    -9.771000000    -0.645000000    -1.955000000
H   -10.204000000    -0.150000000    -3.318000000
O    -3.686000000    -1.224000000    -3.022000000
H    -3.734000000    -0.428000000    -3.552000000
H    -4.437000000    -1.746000000    -3.304000000
O    -5.899000000     4.092000000    -1.435000000
H    -5.737000000     3.193000000    -1.149000000
H    -5.470000000     4.154000000    -2.288000000
O    -3.103000000    -2.579000000    -0.892000000
H    -3.324000000    -1.888000000    -1.516000000
H    -2.234000000    -2.340000000    -0.568000000
O    -4.970000000    -4.989000000    -1.801000000
H    -5.864000000    -4.652000000    -1.750000000
H    -4.443000000    -4.344000000    -1.330000000
O    -6.754000000     6.214000000     0.087000000
H    -6.417000000     5.345000000    -0.129000000
H    -6.803000000     6.220000000     1.043000000
O    -6.151000000    -2.659000000    -3.440000000
H    -6.969000000    -3.147000000    -3.351000000
H    -5.595000000    -3.220000000    -3.980000000
O    -5.837000000     1.976000000    -4.012000000
H    -5.539000000     1.816000000    -3.117000000
H    -5.245000000     1.457000000    -4.557000000
O    -4.787000000    -0.088000000    -5.544000000
H    -4.413000000     0.302000000    -6.335000000
H    -5.263000000    -0.856000000    -5.859000000
O    -6.759000000    -1.076000000    -1.441000000
H    -5.969000000    -0.710000000    -1.044000000
H    -6.455000000    -1.476000000    -2.256000000
O    -7.343000000    -4.149000000    -0.954000000
H    -7.481000000    -3.250000000    -1.252000000
H    -7.297000000    -4.080000000     0.000000000
O    -8.292000000     0.829000000    -4.829000000
H    -7.413000000     1.197000000    -4.734000000
H    -8.611000000     0.735000000    -3.931000000
O    -6.691000000     3.629000000    -6.184000000
H    -6.979000000     2.902000000    -6.736000000
H    -6.378000000     3.212000000    -5.382000000
O    -7.341000000     2.900000000     3.208000000
H    -7.114000000     3.827000000     3.140000000
H    -7.432000000     2.608000000     2.301000000
O    -9.556000000     1.297000000    -0.431000000
H    -9.464000000     0.895000000    -1.294000000
H    -8.755000000     1.055000000     0.033000000
O    -6.454000000    -0.870000000     2.432000000
H    -6.267000000    -1.489000000     3.137000000
H    -5.966000000    -1.208000000     1.681000000
O    -7.330000000     1.202000000     0.935000000
H    -6.605000000     1.108000000     0.318000000
H    -7.308000000     0.400000000     1.456000000
O    -9.100000000     4.239000000    -2.396000000
H    -8.219000000     4.058000000    -2.068000000
H    -9.193000000     5.189000000    -2.322000000
