215
-1473.44219
C    -2.703000000     2.514000000     3.482000000
H    -2.221000000     3.431000000     3.153000000
C    -1.858000000     1.451000000     4.009000000
C    -2.546000000     0.280000000     4.389000000
H    -1.923000000    -0.587000000     4.592000000
C    -0.306000000     1.595000000     3.847000000
O     0.151000000     2.957000000     3.887000000
H    -0.088000000     1.197000000     2.845000000
O     0.386000000     0.839000000     4.828000000
C     1.476000000     0.094000000     4.390000000
C     1.192000000    -1.268000000     4.009000000
H     0.222000000    -1.728000000     4.178000000
C     2.198000000    -1.948000000     3.352000000
O     1.883000000    -3.265000000     3.095000000
C     3.444000000    -1.399000000     3.075000000
C     4.442000000    -2.181000000     2.327000000
H     5.457000000    -1.788000000     2.417000000
C     4.143000000    -2.257000000     0.832000000
C     4.774000000    -1.349000000    -0.018000000
H     5.416000000    -0.613000000     0.460000000
H     4.428000000    -3.170000000     2.790000000
C     3.704000000    -0.111000000     3.412000000
H     4.638000000     0.360000000     3.116000000
C     2.712000000     0.674000000     3.984000000
C     2.922000000     2.184000000     4.242000000
H     4.005000000     2.299000000     4.156000000
H     2.580000000     2.519000000     5.223000000
C     2.416000000     3.073000000     3.051000000
C     3.262000000     3.394000000     2.000000000
H     4.323000000     3.188000000     2.119000000
C     1.077000000     3.314000000     2.940000000
C     0.599000000     3.883000000     1.755000000
H    -0.461000000     4.121000000     1.707000000
C     1.407000000     4.157000000     0.681000000
O     0.874000000     4.854000000    -0.398000000
C     0.479000000     3.987000000    -1.521000000
C    -0.815000000     4.563000000    -2.083000000
C    -1.298000000     4.145000000    -3.302000000
H    -0.705000000     3.462000000    -3.905000000
C    -1.539000000     5.428000000    -1.238000000
H    -1.217000000     5.818000000    -0.276000000
O     1.577000000     4.110000000    -2.520000000
H     0.148000000     2.999000000    -1.169000000
C     2.776000000     3.910000000     0.808000000
C     3.707000000     4.172000000    -0.329000000
H     4.739000000     4.096000000     0.020000000
H     3.603000000     5.193000000    -0.702000000
C     3.460000000     3.120000000    -1.404000000
C     4.358000000     2.014000000    -1.369000000
H     5.182000000     1.934000000    -0.664000000
C     2.485000000     3.135000000    -2.389000000
C     2.376000000     2.186000000    -3.324000000
H     1.589000000     2.297000000    -4.066000000
C     3.179000000     1.071000000    -3.272000000
O     2.833000000    -0.023000000    -4.077000000
C     2.267000000    -1.252000000    -3.498000000
C     1.112000000    -1.839000000    -4.296000000
C     0.148000000    -0.997000000    -4.755000000
H     0.395000000     0.030000000    -4.499000000
C     0.912000000    -3.214000000    -4.497000000
H     1.668000000    -3.937000000    -4.200000000
O     3.280000000    -2.282000000    -3.258000000
H     1.853000000    -1.030000000    -2.503000000
C     4.257000000     1.002000000    -2.331000000
C     5.131000000    -0.244000000    -2.288000000
H     6.088000000     0.092000000    -1.884000000
H     5.293000000    -0.570000000    -3.318000000
C     4.470000000    -1.307000000    -1.387000000
C     3.675000000    -2.332000000    -1.948000000
C     3.090000000    -3.287000000    -1.072000000
H     2.463000000    -4.046000000    -1.533000000
C     3.342000000    -3.288000000     0.240000000
O     2.654000000    -4.144000000     1.043000000
C     1.510000000    -3.488000000     1.760000000
H     1.359000000    -2.539000000     1.224000000
C     0.294000000    -4.448000000     1.741000000
C    -0.720000000    -4.406000000     2.718000000
H    -0.658000000    -3.800000000     3.618000000
C     0.040000000    -5.214000000     0.580000000
H     0.825000000    -5.287000000    -0.168000000
C    -1.166000000    -5.963000000     0.417000000
O    -1.473000000    -6.740000000    -0.657000000
C    -2.120000000    -5.984000000     1.438000000
H    -2.988000000    -6.629000000     1.324000000
C    -1.895000000    -5.166000000     2.580000000
O    -2.757000000    -5.359000000     3.652000000
C    -3.059000000    -4.320000000     4.476000000
C    -3.721000000    -3.183000000     4.054000000
H    -4.039000000    -3.136000000     3.016000000
C    -2.664000000    -4.500000000     5.818000000
H    -2.179000000    -5.407000000     6.171000000
C    -2.916000000    -3.433000000     6.743000000
H    -2.638000000    -3.613000000     7.778000000
C    -3.497000000    -2.282000000     6.276000000
H    -3.792000000    -1.558000000     7.031000000
C    -3.918000000    -2.170000000     4.943000000
O    -4.505000000    -1.026000000     4.433000000
C    -3.890000000     0.142000000     4.138000000
C    -4.699000000     1.193000000     3.679000000
H    -5.761000000     1.116000000     3.460000000
C    -4.077000000     2.426000000     3.433000000
O    -4.856000000     3.514000000     3.119000000
C    -4.325000000     4.655000000     2.619000000
C    -4.196000000     4.866000000     1.209000000
H    -4.499000000     4.145000000     0.454000000
C    -3.854000000     5.663000000     3.490000000
H    -4.025000000     5.507000000     4.552000000
C    -3.433000000     6.881000000     2.994000000
H    -3.254000000     7.732000000     3.646000000
C    -3.368000000     7.052000000     1.603000000
H    -3.058000000     8.028000000     1.240000000
C    -3.694000000     6.081000000     0.688000000
O    -3.803000000     6.230000000    -0.669000000
C    -2.876000000     5.723000000    -1.567000000
C    -3.376000000     5.242000000    -2.784000000
H    -4.424000000     5.411000000    -3.017000000
C    -2.604000000     4.505000000    -3.692000000
O    -3.267000000     4.007000000    -4.749000000
C    -2.608000000     3.006000000    -5.483000000
C    -2.615000000     1.645000000    -5.142000000
H    -3.265000000     1.297000000    -4.343000000
C    -1.759000000     3.401000000    -6.527000000
H    -1.615000000     4.478000000    -6.553000000
C    -1.114000000     2.503000000    -7.345000000
H    -0.566000000     2.894000000    -8.199000000
C    -1.141000000     1.153000000    -6.971000000
H    -0.614000000     0.361000000    -7.496000000
C    -1.909000000     0.664000000    -5.932000000
O    -2.112000000    -0.632000000    -5.557000000
C    -1.058000000    -1.477000000    -5.204000000
C    -1.311000000    -2.841000000    -5.376000000
H    -2.285000000    -3.155000000    -5.742000000
C    -0.256000000    -3.721000000    -5.011000000
O    -0.446000000    -5.083000000    -5.067000000
C    -0.163000000    -5.899000000    -4.009000000
C     0.875000000    -6.861000000    -4.058000000
H     1.447000000    -7.030000000    -4.967000000
C     0.941000000    -7.827000000    -3.072000000
H     1.604000000    -8.664000000    -3.278000000
C     0.102000000    -7.842000000    -1.991000000
H     0.116000000    -8.663000000    -1.279000000
C    -0.732000000    -6.759000000    -1.814000000
C    -0.873000000    -5.881000000    -2.843000000
H    -1.702000000    -5.191000000    -2.714000000
C    -2.224000000     0.318000000     0.660000000
H    -2.873000000     0.062000000     1.494000000
C    -0.935000000    -0.259000000     0.699000000
H    -0.586000000    -0.783000000     1.585000000
C    -0.141000000    -0.175000000    -0.435000000
H     0.852000000    -0.509000000    -0.444000000
C    -0.482000000     0.591000000    -1.508000000
H     0.139000000     0.737000000    -2.388000000
C    -1.704000000     1.184000000    -1.537000000
H    -1.934000000     1.793000000    -2.407000000
C    -2.628000000     0.930000000    -0.498000000
C    -4.018000000     1.432000000    -0.586000000
O    -4.400000000     1.884000000    -1.657000000
O    -4.776000000     1.241000000     0.296000000
O    -6.563000000    -4.598000000     1.853000000
H    -5.873000000    -4.118000000     1.395000000
H    -7.165000000    -3.920000000     2.160000000
O    -7.312000000    -1.199000000    -3.295000000
H    -7.606000000    -0.842000000    -2.457000000
H    -7.999000000    -1.816000000    -3.547000000
O    -9.981000000     1.227000000     2.255000000
H   -10.725000000     0.977000000     1.707000000
H    -9.235000000     0.765000000     1.874000000
O    -9.149000000     2.592000000    -1.371000000
H    -8.826000000     2.999000000    -0.567000000
H    -8.973000000     3.238000000    -2.055000000
O    -4.251000000    -4.619000000    -3.064000000
H    -5.006000000    -4.388000000    -3.605000000
H    -3.866000000    -3.778000000    -2.818000000
O    -6.643000000     2.561000000    -3.203000000
H    -7.024000000     1.684000000    -3.250000000
H    -5.777000000     2.425000000    -2.819000000
O    -3.996000000    -3.122000000     0.479000000
H    -4.482000000    -2.421000000     0.914000000
H    -3.417000000    -2.668000000    -0.133000000
O    -2.713000000    -1.949000000    -2.383000000
H    -2.093000000    -1.332000000    -1.993000000
H    -3.402000000    -1.395000000    -2.750000000
O    -4.707000000    -0.293000000    -3.295000000
H    -4.665000000     0.540000000    -2.826000000
H    -5.620000000    -0.569000000    -3.212000000
O    -7.927000000     6.383000000     1.606000000
H    -8.761000000     6.852000000     1.636000000
H    -8.158000000     5.500000000     1.319000000
O    -5.803000000    -1.053000000     1.023000000
H    -5.264000000    -0.369000000     0.626000000
H    -6.401000000    -0.581000000     1.602000000
O    -9.050000000    -1.449000000     1.622000000
H    -8.491000000    -1.759000000     2.334000000
H    -9.422000000    -2.247000000     1.245000000
O    -8.700000000     3.751000000     1.059000000
H    -9.268000000     3.931000000     1.808000000
H    -8.259000000     2.932000000     1.282000000
O    -8.736000000    -0.074000000    -1.176000000
H    -8.564000000    -0.243000000    -0.250000000
H    -9.000000000     0.846000000    -1.205000000
O    -7.190000000     5.805000000     4.040000000
H    -7.390000000     6.005000000     3.126000000
H    -6.759000000     4.951000000     4.010000000
O    -8.552000000     4.552000000    -3.235000000
H    -7.726000000     4.088000000    -3.100000000
H    -8.617000000     4.655000000    -4.185000000
O    -7.220000000     1.522000000     1.397000000
H    -6.409000000     1.318000000     0.932000000
H    -6.954000000     1.625000000     2.310000000
O    -8.037000000     1.416000000     4.278000000
H    -8.590000000     2.045000000     4.741000000
H    -8.610000000     1.039000000     3.610000000
O    -6.111000000     3.349000000    -5.875000000
H    -5.187000000     3.221000000    -6.086000000
H    -6.143000000     3.341000000    -4.919000000
