215
-1459.08627
C    -1.980000000     3.451000000     2.379000000
H    -1.719000000     3.752000000     1.367000000
C    -0.969000000     3.272000000     3.320000000
C    -1.413000000     2.819000000     4.588000000
H    -0.717000000     2.633000000     5.402000000
C     0.501000000     3.221000000     2.846000000
O     0.973000000     4.376000000     2.125000000
H     0.677000000     2.402000000     2.132000000
O     1.318000000     2.976000000     3.999000000
C     2.229000000     1.942000000     3.763000000
C     1.795000000     0.653000000     4.164000000
H     0.794000000     0.537000000     4.569000000
C     2.578000000    -0.423000000     3.850000000
O     2.007000000    -1.667000000     4.154000000
C     3.734000000    -0.327000000     3.154000000
C     4.550000000    -1.602000000     2.810000000
H     5.598000000    -1.307000000     2.718000000
C     3.961000000    -2.262000000     1.498000000
C     4.475000000    -1.819000000     0.291000000
H     5.316000000    -1.130000000     0.290000000
H     4.503000000    -2.414000000     3.539000000
C     4.173000000     0.927000000     2.690000000
H     5.093000000     1.137000000     2.151000000
C     3.343000000     2.096000000     2.962000000
C     3.842000000     3.400000000     2.337000000
H     4.916000000     3.305000000     2.164000000
H     3.711000000     4.253000000     3.006000000
C     3.125000000     3.694000000     1.080000000
C     3.887000000     3.388000000    -0.078000000
H     4.894000000     2.986000000    -0.011000000
C     1.806000000     4.190000000     1.023000000
C     1.209000000     4.257000000    -0.228000000
H     0.182000000     4.601000000    -0.145000000
C     1.946000000     4.012000000    -1.393000000
O     1.256000000     4.099000000    -2.590000000
C     0.675000000     2.874000000    -3.136000000
C    -0.782000000     3.011000000    -3.518000000
C    -1.358000000     1.999000000    -4.368000000
H    -0.757000000     1.191000000    -4.777000000
C    -1.615000000     3.941000000    -2.890000000
H    -1.253000000     4.699000000    -2.200000000
O     1.550000000     2.316000000    -4.175000000
H     0.658000000     2.076000000    -2.378000000
C     3.242000000     3.501000000    -1.323000000
C     3.933000000     3.056000000    -2.590000000
H     5.025000000     3.047000000    -2.594000000
H     3.602000000     3.718000000    -3.393000000
C     3.633000000     1.598000000    -2.985000000
C     4.399000000     0.570000000    -2.502000000
H     5.180000000     0.641000000    -1.748000000
C     2.442000000     1.283000000    -3.781000000
C     2.111000000    -0.026000000    -4.147000000
H     1.298000000    -0.208000000    -4.845000000
C     2.970000000    -0.992000000    -3.624000000
O     2.648000000    -2.302000000    -3.881000000
C     1.784000000    -2.964000000    -2.943000000
C     0.532000000    -3.552000000    -3.563000000
C     0.023000000    -3.125000000    -4.782000000
H     0.516000000    -2.350000000    -5.364000000
C    -0.169000000    -4.538000000    -2.832000000
H     0.182000000    -4.872000000    -1.859000000
O     2.567000000    -3.832000000    -2.097000000
H     1.288000000    -2.240000000    -2.279000000
C     4.074000000    -0.779000000    -2.844000000
C     4.738000000    -1.974000000    -2.219000000
H     5.775000000    -1.747000000    -1.964000000
H     4.787000000    -2.825000000    -2.901000000
C     4.074000000    -2.407000000    -0.950000000
C     3.059000000    -3.341000000    -0.922000000
C     2.484000000    -3.772000000     0.238000000
H     1.772000000    -4.593000000     0.268000000
C     2.953000000    -3.268000000     1.431000000
O     2.155000000    -3.460000000     2.554000000
C     1.359000000    -2.419000000     3.079000000
H     1.084000000    -1.651000000     2.340000000
C    -0.015000000    -2.923000000     3.545000000
C    -0.526000000    -2.515000000     4.724000000
H     0.018000000    -1.994000000     5.508000000
C    -0.738000000    -3.617000000     2.569000000
H    -0.331000000    -3.650000000     1.562000000
C    -2.050000000    -4.017000000     2.840000000
O    -2.908000000    -4.478000000     1.794000000
C    -2.618000000    -3.574000000     4.064000000
H    -3.694000000    -3.584000000     4.216000000
C    -1.854000000    -2.885000000     4.954000000
O    -2.396000000    -2.476000000     6.130000000
C    -2.173000000    -1.291000000     6.742000000
C    -2.689000000    -0.154000000     6.146000000
H    -3.306000000    -0.304000000     5.264000000
C    -1.390000000    -1.140000000     7.899000000
H    -0.932000000    -2.032000000     8.319000000
C    -1.285000000     0.067000000     8.588000000
H    -0.706000000     0.200000000     9.498000000
C    -1.901000000     1.188000000     8.006000000
H    -1.822000000     2.137000000     8.529000000
C    -2.546000000     1.086000000     6.738000000
O    -3.150000000     2.226000000     6.206000000
C    -2.748000000     2.668000000     4.972000000
C    -3.666000000     2.900000000     3.988000000
H    -4.729000000     2.818000000     4.196000000
C    -3.264000000     3.282000000     2.716000000
O    -4.206000000     3.488000000     1.757000000
C    -4.059000000     4.462000000     0.747000000
C    -4.003000000     4.191000000    -0.617000000
H    -4.246000000     3.197000000    -0.983000000
C    -4.087000000     5.792000000     1.187000000
H    -4.403000000     6.007000000     2.204000000
C    -4.057000000     6.897000000     0.282000000
H    -4.112000000     7.928000000     0.623000000
C    -3.985000000     6.581000000    -1.072000000
H    -4.023000000     7.349000000    -1.840000000
C    -3.961000000     5.249000000    -1.510000000
O    -3.865000000     4.917000000    -2.876000000
C    -2.947000000     4.012000000    -3.257000000
C    -3.443000000     2.989000000    -4.098000000
H    -4.511000000     3.044000000    -4.294000000
C    -2.711000000     2.013000000    -4.693000000
O    -3.268000000     1.055000000    -5.453000000
C    -2.588000000     0.291000000    -6.323000000
C    -2.430000000    -1.057000000    -5.993000000
H    -2.853000000    -1.396000000    -5.051000000
C    -1.948000000     0.822000000    -7.439000000
H    -2.101000000     1.859000000    -7.729000000
C    -1.137000000    -0.051000000    -8.216000000
H    -0.793000000     0.409000000    -9.139000000
C    -1.059000000    -1.412000000    -7.959000000
H    -0.626000000    -2.101000000    -8.679000000
C    -1.682000000    -1.891000000    -6.794000000
O    -1.601000000    -3.275000000    -6.467000000
C    -1.141000000    -3.726000000    -5.318000000
C    -1.769000000    -4.800000000    -4.679000000
H    -2.708000000    -5.225000000    -5.025000000
C    -1.292000000    -5.183000000    -3.403000000
O    -2.017000000    -6.087000000    -2.646000000
C    -1.920000000    -6.252000000    -1.264000000
C    -1.276000000    -7.361000000    -0.808000000
H    -1.006000000    -8.160000000    -1.494000000
C    -1.166000000    -7.525000000     0.604000000
H    -0.800000000    -8.452000000     1.039000000
C    -1.680000000    -6.571000000     1.424000000
H    -1.639000000    -6.573000000     2.511000000
C    -2.355000000    -5.477000000     0.920000000
C    -2.403000000    -5.261000000    -0.429000000
H    -2.923000000    -4.410000000    -0.861000000
C    -1.953000000    -0.574000000     0.659000000
H    -2.814000000    -0.870000000     1.252000000
C    -0.817000000    -0.156000000     1.332000000
H    -0.874000000     0.009000000     2.405000000
C     0.362000000     0.087000000     0.644000000
H     1.309000000     0.267000000     1.172000000
C     0.427000000    -0.054000000    -0.752000000
H     1.325000000     0.195000000    -1.311000000
C    -0.737000000    -0.428000000    -1.368000000
H    -0.773000000    -0.582000000    -2.444000000
C    -1.909000000    -0.682000000    -0.715000000
C    -3.148000000    -1.117000000    -1.529000000
O    -3.089000000    -1.367000000    -2.712000000
O    -4.214000000    -1.122000000    -0.967000000
O    -7.092000000     3.422000000     2.015000000
H    -7.369000000     2.785000000     1.356000000
H    -6.159000000     3.551000000     1.846000000
O    -8.182000000    -0.149000000    -5.041000000
H    -7.548000000    -0.394000000    -4.367000000
H    -7.958000000     0.755000000    -5.263000000
O    -5.187000000     2.714000000    -7.019000000
H    -4.846000000     1.963000000    -6.532000000
H    -6.089000000     2.809000000    -6.711000000
O    -5.293000000     0.415000000    -3.240000000
H    -4.565000000    -0.018000000    -2.794000000
H    -5.222000000     0.128000000    -4.150000000
O    -6.796000000    -1.400000000    -1.063000000
H    -5.884000000    -1.176000000    -1.248000000
H    -6.808000000    -2.356000000    -1.041000000
O    -7.635000000    -4.348000000     2.365000000
H    -7.059000000    -3.777000000     1.856000000
H    -8.387000000    -3.796000000     2.581000000
O    -5.148000000    -2.644000000     1.251000000
H    -4.838000000    -1.861000000     0.797000000
H    -4.509000000    -3.321000000     1.024000000
O    -5.236000000    -2.586000000    -4.100000000
H    -4.413000000    -2.270000000    -3.728000000
H    -5.759000000    -2.843000000    -3.340000000
O    -6.538000000    -0.839000000     3.251000000
H    -5.963000000    -1.273000000     2.621000000
H    -7.069000000    -0.244000000     2.721000000
O    -6.513000000    -4.268000000    -2.035000000
H    -7.347000000    -4.722000000    -2.157000000
H    -6.102000000    -4.717000000    -1.297000000
O    -9.313000000     1.841000000    -2.792000000
H    -9.227000000     1.505000000    -1.900000000
H   -10.118000000     1.441000000    -3.122000000
O    -6.434000000    -2.042000000    -6.288000000
H    -5.898000000    -2.118000000    -5.498000000
H    -7.264000000    -2.457000000    -6.054000000
O    -9.154000000    -0.706000000     0.169000000
H    -9.084000000     0.204000000     0.456000000
H    -8.271000000    -0.934000000    -0.123000000
O    -7.602000000    -4.298000000    -5.087000000
H    -8.090000000    -4.053000000    -4.300000000
H    -6.719000000    -4.488000000    -4.772000000
O    -7.581000000     3.828000000    -3.132000000
H    -7.414000000     4.066000000    -2.220000000
H    -8.069000000     3.006000000    -3.079000000
O    -4.932000000     0.628000000     1.422000000
H    -5.220000000     0.668000000     0.510000000
H    -4.529000000     1.482000000     1.583000000
O    -5.455000000    -5.424000000     0.327000000
H    -5.787000000    -5.027000000     1.132000000
H    -5.018000000    -6.225000000     0.618000000
O    -6.621000000     1.492000000    -0.726000000
H    -6.057000000     1.601000000    -1.492000000
H    -6.760000000     0.547000000    -0.663000000
O    -5.280000000    -7.381000000    -4.377000000
H    -5.971000000    -7.054000000    -3.801000000
H    -4.466000000    -7.153000000    -3.927000000
