215
-1467.83955
C    -2.721000000     3.347000000     2.310000000
H    -2.089000000     3.866000000     1.594000000
C    -1.959000000     2.638000000     3.249000000
C    -2.614000000     1.851000000     4.272000000
H    -2.015000000     1.346000000     5.025000000
C    -0.420000000     2.667000000     3.082000000
O     0.078000000     3.935000000     2.580000000
H    -0.115000000     1.869000000     2.388000000
O     0.333000000     2.498000000     4.341000000
C     1.389000000     1.592000000     4.318000000
C     1.154000000     0.273000000     4.595000000
H     0.163000000    -0.108000000     4.827000000
C     2.143000000    -0.713000000     4.500000000
O     1.674000000    -2.006000000     4.556000000
C     3.360000000    -0.289000000     3.894000000
C     4.343000000    -1.410000000     3.554000000
H     5.378000000    -1.071000000     3.625000000
C     4.144000000    -1.983000000     2.165000000
C     4.886000000    -1.448000000     1.093000000
H     5.602000000    -0.641000000     1.231000000
H     4.377000000    -2.226000000     4.278000000
C     3.596000000     1.022000000     3.533000000
H     4.491000000     1.305000000     2.986000000
C     2.584000000     1.976000000     3.723000000
C     2.735000000     3.410000000     3.319000000
H     3.790000000     3.624000000     3.504000000
H     2.153000000     4.076000000     3.959000000
C     2.385000000     3.737000000     1.955000000
C     3.343000000     3.634000000     0.912000000
H     4.355000000     3.286000000     1.104000000
C     1.045000000     4.061000000     1.640000000
C     0.709000000     4.301000000     0.352000000
H    -0.356000000     4.423000000     0.167000000
C     1.602000000     4.262000000    -0.729000000
O     1.071000000     4.356000000    -2.028000000
C     1.010000000     3.213000000    -2.885000000
C    -0.333000000     3.227000000    -3.654000000
C    -0.320000000     2.758000000    -4.957000000
H     0.650000000     2.443000000    -5.333000000
C    -1.554000000     3.627000000    -3.045000000
H    -1.477000000     4.061000000    -2.051000000
O     2.267000000     3.103000000    -3.644000000
H     0.999000000     2.340000000    -2.216000000
C     2.953000000     3.907000000    -0.433000000
C     4.057000000     3.783000000    -1.530000000
H     5.077000000     3.922000000    -1.164000000
H     3.970000000     4.557000000    -2.295000000
C     4.032000000     2.379000000    -2.211000000
C     4.743000000     1.362000000    -1.585000000
H     5.350000000     1.629000000    -0.723000000
C     3.188000000     2.130000000    -3.257000000
C     2.959000000     0.833000000    -3.673000000
H     2.174000000     0.657000000    -4.404000000
C     3.623000000    -0.228000000    -3.058000000
O     3.271000000    -1.489000000    -3.505000000
C     2.388000000    -2.191000000    -2.656000000
C     1.290000000    -2.977000000    -3.397000000
C     0.794000000    -2.447000000    -4.568000000
H     1.251000000    -1.542000000    -4.961000000
C     0.806000000    -4.194000000    -2.898000000
H     1.232000000    -4.718000000    -2.047000000
O     3.204000000    -3.070000000    -1.802000000
H     1.904000000    -1.456000000    -1.996000000
C     4.577000000     0.034000000    -2.058000000
C     5.426000000    -1.064000000    -1.415000000
H     6.271000000    -0.601000000    -0.901000000
H     5.819000000    -1.771000000    -2.148000000
C     4.615000000    -1.793000000    -0.227000000
C     3.535000000    -2.665000000    -0.534000000
C     2.913000000    -3.357000000     0.498000000
H     2.178000000    -4.153000000     0.402000000
C     3.143000000    -2.918000000     1.848000000
O     2.294000000    -3.466000000     2.777000000
C     1.261000000    -2.534000000     3.320000000
H     1.172000000    -1.677000000     2.636000000
C    -0.109000000    -3.213000000     3.442000000
C    -0.887000000    -2.959000000     4.571000000
H    -0.527000000    -2.385000000     5.421000000
C    -0.659000000    -3.831000000     2.345000000
H    -0.073000000    -3.875000000     1.431000000
C    -1.936000000    -4.348000000     2.372000000
O    -2.499000000    -4.901000000     1.245000000
C    -2.757000000    -4.041000000     3.443000000
H    -3.791000000    -4.378000000     3.441000000
C    -2.228000000    -3.396000000     4.616000000
O    -3.018000000    -3.277000000     5.723000000
C    -3.317000000    -2.053000000     6.297000000
C    -3.791000000    -0.984000000     5.469000000
H    -3.966000000    -1.071000000     4.399000000
C    -3.348000000    -1.848000000     7.683000000
H    -3.075000000    -2.682000000     8.323000000
C    -3.736000000    -0.662000000     8.256000000
H    -3.598000000    -0.544000000     9.327000000
C    -4.280000000     0.357000000     7.484000000
H    -4.710000000     1.222000000     7.982000000
C    -4.253000000     0.221000000     6.086000000
O    -4.661000000     1.351000000     5.374000000
C    -3.988000000     1.928000000     4.406000000
C    -4.698000000     2.623000000     3.406000000
H    -5.778000000     2.723000000     3.478000000
C    -4.096000000     3.271000000     2.404000000
O    -4.953000000     3.925000000     1.497000000
C    -4.554000000     4.555000000     0.346000000
C    -4.548000000     3.812000000    -0.851000000
H    -4.688000000     2.734000000    -0.868000000
C    -4.254000000     5.922000000     0.330000000
H    -4.267000000     6.540000000     1.224000000
C    -3.978000000     6.522000000    -0.856000000
H    -3.838000000     7.600000000    -0.875000000
C    -3.945000000     5.794000000    -2.067000000
H    -3.664000000     6.294000000    -2.990000000
C    -4.129000000     4.459000000    -2.018000000
O    -4.034000000     3.769000000    -3.179000000
C    -2.818000000     3.425000000    -3.723000000
C    -2.786000000     2.727000000    -4.933000000
H    -3.666000000     2.395000000    -5.477000000
C    -1.570000000     2.465000000    -5.584000000
O    -1.581000000     1.940000000    -6.871000000
C    -0.945000000     0.770000000    -7.289000000
C    -1.121000000    -0.376000000    -6.566000000
H    -1.728000000    -0.440000000    -5.666000000
C    -0.202000000     0.837000000    -8.444000000
H    -0.071000000     1.808000000    -8.915000000
C     0.288000000    -0.401000000    -9.016000000
H     0.816000000    -0.396000000    -9.966000000
C     0.219000000    -1.565000000    -8.236000000
H     0.589000000    -2.483000000    -8.685000000
C    -0.483000000    -1.590000000    -7.030000000
O    -0.770000000    -2.745000000    -6.407000000
C    -0.248000000    -3.152000000    -5.273000000
C    -0.739000000    -4.374000000    -4.712000000
H    -1.524000000    -4.942000000    -5.205000000
C    -0.322000000    -4.812000000    -3.467000000
O    -0.879000000    -5.998000000    -3.054000000
C    -1.059000000    -6.345000000    -1.719000000
C    -0.927000000    -7.659000000    -1.347000000
H    -0.704000000    -8.365000000    -2.142000000
C    -1.152000000    -8.096000000    -0.002000000
H    -1.205000000    -9.167000000     0.178000000
C    -1.558000000    -7.071000000     0.873000000
H    -1.550000000    -7.236000000     1.947000000
C    -1.827000000    -5.776000000     0.444000000
C    -1.509000000    -5.342000000    -0.849000000
H    -1.709000000    -4.306000000    -1.108000000
C    -1.946000000    -0.580000000     0.498000000
H    -2.459000000    -0.890000000     1.404000000
C    -0.547000000    -0.283000000     0.604000000
H    -0.072000000    -0.410000000     1.573000000
C     0.192000000    -0.103000000    -0.567000000
H     1.297000000     0.047000000    -0.552000000
C    -0.404000000    -0.097000000    -1.806000000
H     0.193000000    -0.026000000    -2.712000000
C    -1.776000000    -0.226000000    -1.896000000
H    -2.272000000    -0.082000000    -2.852000000
C    -2.574000000    -0.500000000    -0.772000000
C    -4.097000000    -0.546000000    -0.892000000
O    -4.594000000    -0.135000000    -1.928000000
O    -4.803000000    -1.160000000    -0.102000000
O    -6.436000000     3.015000000    -5.826000000
H    -7.322000000     2.726000000    -5.610000000
H    -5.955000000     2.205000000    -5.995000000
O    -6.201000000     1.741000000    -2.812000000
H    -5.593000000     1.099000000    -2.445000000
H    -5.664000000     2.267000000    -3.405000000
O    -3.998000000    -5.473000000    -4.266000000
H    -3.952000000    -6.212000000    -3.661000000
H    -4.597000000    -4.856000000    -3.846000000
O    -8.487000000    -2.909000000    -1.269000000
H    -7.965000000    -2.119000000    -1.128000000
H    -8.002000000    -3.600000000    -0.818000000
O    -8.492000000     3.427000000     1.433000000
H    -8.420000000     4.371000000     1.290000000
H    -8.624000000     3.062000000     0.558000000
O    -5.528000000     0.460000000    -5.715000000
H    -5.610000000    -0.098000000    -4.943000000
H    -5.467000000    -0.153000000    -6.448000000
O    -6.001000000    -1.086000000     2.118000000
H    -5.551000000    -1.147000000     1.275000000
H    -5.694000000    -1.848000000     2.609000000
O    -6.091000000    -1.516000000    -3.317000000
H    -5.364000000    -0.993000000    -2.978000000
H    -5.845000000    -2.421000000    -3.123000000
O    -5.567000000    -4.211000000    -2.319000000
H    -6.297000000    -4.649000000    -1.882000000
H    -5.028000000    -3.871000000    -1.605000000
O    -9.119000000    -1.734000000     2.503000000
H    -9.710000000    -1.054000000     2.179000000
H    -9.400000000    -2.530000000     2.052000000
O    -6.758000000    -3.124000000     4.111000000
H    -7.237000000    -2.393000000     3.721000000
H    -6.828000000    -2.981000000     5.055000000
O    -8.115000000    -0.116000000    -4.375000000
H    -7.337000000    -0.498000000    -3.970000000
H    -8.331000000     0.633000000    -3.820000000
O    -8.996000000    -2.685000000    -3.773000000
H    -8.733000000    -2.691000000    -2.853000000
H    -8.567000000    -1.913000000    -4.141000000
O    -7.545000000    -5.402000000     2.550000000
H    -6.828000000    -6.036000000     2.546000000
H    -7.188000000    -4.640000000     3.006000000
O    -7.262000000    -0.256000000    -0.744000000
H    -6.366000000    -0.240000000    -1.081000000
H    -7.161000000    -0.198000000     0.207000000
O    -7.513000000     0.336000000     4.176000000
H    -8.326000000     0.045000000     3.765000000
H    -6.849000000     0.236000000     3.493000000
O    -7.180000000    -4.891000000    -0.090000000
H    -7.680000000    -5.605000000    -0.485000000
H    -7.450000000    -4.890000000     0.829000000
O    -8.235000000     2.241000000    -1.014000000
H    -7.755000000     2.543000000    -1.785000000
H    -8.020000000     1.310000000    -0.947000000
O   -10.423000000     1.197000000    -2.512000000
H    -9.816000000     1.333000000    -1.785000000
H   -10.783000000     0.323000000    -2.363000000
