215
-1412.18248
C    -2.146000000     4.061000000     2.132000000
H    -1.697000000     4.557000000     1.275000000
C    -1.310000000     3.548000000     3.125000000
C    -1.898000000     2.870000000     4.203000000
H    -1.224000000     2.396000000     4.912000000
C     0.161000000     3.368000000     2.770000000
O     0.865000000     4.520000000     2.239000000
H     0.093000000     2.610000000     1.976000000
O     0.777000000     2.901000000     3.894000000
C     1.758000000     1.937000000     3.845000000
C     1.445000000     0.657000000     4.407000000
H     0.480000000     0.476000000     4.874000000
C     2.161000000    -0.469000000     4.019000000
O     1.588000000    -1.695000000     4.191000000
C     3.443000000    -0.268000000     3.471000000
C     4.339000000    -1.544000000     3.118000000
H     5.390000000    -1.266000000     3.222000000
C     4.020000000    -2.094000000     1.721000000
C     4.813000000    -1.721000000     0.624000000
H     5.612000000    -0.995000000     0.753000000
H     3.982000000    -2.253000000     3.869000000
C     3.847000000     1.055000000     3.144000000
H     4.836000000     1.151000000     2.704000000
C     3.007000000     2.174000000     3.249000000
C     3.440000000     3.542000000     2.720000000
H     4.525000000     3.642000000     2.640000000
H     3.099000000     4.365000000     3.351000000
C     2.950000000     3.781000000     1.338000000
C     3.661000000     3.331000000     0.215000000
H     4.584000000     2.777000000     0.369000000
C     1.734000000     4.431000000     1.194000000
C     1.194000000     4.683000000    -0.106000000
H     0.193000000     5.095000000    -0.203000000
C     1.897000000     4.232000000    -1.228000000
O     1.396000000     4.284000000    -2.515000000
C     0.908000000     2.960000000    -2.992000000
C    -0.523000000     2.969000000    -3.432000000
C    -1.119000000     1.907000000    -4.175000000
H    -0.591000000     0.998000000    -4.451000000
C    -1.363000000     4.075000000    -3.149000000
H    -1.021000000     4.812000000    -2.427000000
O     1.672000000     2.338000000    -4.040000000
H     0.955000000     2.293000000    -2.119000000
C     3.142000000     3.658000000    -1.043000000
C     3.922000000     3.265000000    -2.297000000
H     4.989000000     3.353000000    -2.084000000
H     3.718000000     4.024000000    -3.056000000
C     3.628000000     1.818000000    -2.668000000
C     4.560000000     0.881000000    -2.169000000
H     5.348000000     1.184000000    -1.484000000
C     2.638000000     1.435000000    -3.588000000
C     2.413000000     0.140000000    -3.891000000
H     1.658000000    -0.181000000    -4.603000000
C     3.229000000    -0.795000000    -3.303000000
O     2.863000000    -2.094000000    -3.535000000
C     2.102000000    -2.824000000    -2.567000000
C     1.002000000    -3.698000000    -3.192000000
C     0.310000000    -3.235000000    -4.291000000
H     0.547000000    -2.276000000    -4.745000000
C     0.662000000    -4.897000000    -2.656000000
H     1.155000000    -5.238000000    -1.749000000
O     3.029000000    -3.689000000    -1.905000000
H     1.632000000    -2.107000000    -1.877000000
C     4.238000000    -0.505000000    -2.426000000
C     5.086000000    -1.692000000    -1.870000000
H     6.068000000    -1.278000000    -1.629000000
H     5.269000000    -2.477000000    -2.606000000
C     4.441000000    -2.320000000    -0.611000000
C     3.414000000    -3.286000000    -0.679000000
C     2.698000000    -3.672000000     0.379000000
H     1.901000000    -4.379000000     0.163000000
C     2.988000000    -3.036000000     1.598000000
O     2.129000000    -3.322000000     2.679000000
C     1.194000000    -2.378000000     3.014000000
H     1.118000000    -1.563000000     2.280000000
C    -0.234000000    -2.957000000     3.143000000
C    -1.122000000    -2.351000000     3.978000000
H    -0.850000000    -1.538000000     4.646000000
C    -0.637000000    -4.041000000     2.477000000
H     0.132000000    -4.544000000     1.896000000
C    -1.967000000    -4.539000000     2.617000000
O    -2.501000000    -5.647000000     2.026000000
C    -2.782000000    -3.988000000     3.528000000
H    -3.698000000    -4.488000000     3.831000000
C    -2.387000000    -2.867000000     4.240000000
O    -3.250000000    -2.364000000     5.150000000
C    -2.990000000    -1.198000000     5.891000000
C    -3.567000000     0.023000000     5.341000000
H    -4.144000000     0.065000000     4.421000000
C    -2.083000000    -1.179000000     6.955000000
H    -1.624000000    -2.065000000     7.386000000
C    -1.861000000     0.052000000     7.594000000
H    -1.273000000     0.074000000     8.508000000
C    -2.573000000     1.196000000     7.182000000
H    -2.691000000     2.017000000     7.885000000
C    -3.340000000     1.171000000     6.019000000
O    -3.924000000     2.307000000     5.524000000
C    -3.338000000     2.862000000     4.319000000
C    -4.145000000     3.325000000     3.352000000
H    -5.216000000     3.155000000     3.425000000
C    -3.567000000     3.966000000     2.236000000
O    -4.493000000     4.244000000     1.265000000
C    -4.353000000     5.169000000     0.317000000
C    -3.853000000     4.843000000    -0.923000000
H    -3.675000000     3.794000000    -1.143000000
C    -4.605000000     6.540000000     0.556000000
H    -5.087000000     6.767000000     1.503000000
C    -4.325000000     7.501000000    -0.402000000
H    -4.490000000     8.571000000    -0.301000000
C    -3.948000000     7.027000000    -1.671000000
H    -3.746000000     7.817000000    -2.390000000
C    -3.704000000     5.772000000    -1.933000000
O    -3.381000000     5.352000000    -3.217000000
C    -2.690000000     4.187000000    -3.543000000
C    -3.256000000     3.124000000    -4.300000000
H    -4.293000000     3.204000000    -4.614000000
C    -2.428000000     2.052000000    -4.734000000
O    -3.047000000     0.972000000    -5.400000000
C    -2.434000000     0.036000000    -6.106000000
C    -2.324000000    -1.258000000    -5.534000000
H    -2.625000000    -1.445000000    -4.506000000
C    -1.861000000     0.294000000    -7.329000000
H    -2.212000000     1.254000000    -7.696000000
C    -1.293000000    -0.683000000    -8.072000000
H    -0.874000000    -0.470000000    -9.052000000
C    -1.093000000    -1.909000000    -7.506000000
H    -0.419000000    -2.615000000    -7.984000000
C    -1.678000000    -2.259000000    -6.292000000
O    -1.568000000    -3.550000000    -5.769000000
C    -0.877000000    -3.891000000    -4.614000000
C    -1.359000000    -4.962000000    -3.916000000
H    -2.141000000    -5.643000000    -4.243000000
C    -0.507000000    -5.553000000    -3.011000000
O    -0.848000000    -6.748000000    -2.450000000
C    -1.009000000    -7.051000000    -1.125000000
C    -0.390000000    -8.167000000    -0.655000000
H     0.018000000    -8.790000000    -1.446000000
C    -0.491000000    -8.492000000     0.723000000
H    -0.069000000    -9.404000000     1.138000000
C    -1.142000000    -7.576000000     1.645000000
H    -1.314000000    -7.886000000     2.673000000
C    -1.762000000    -6.413000000     1.143000000
C    -1.679000000    -6.213000000    -0.260000000
H    -2.083000000    -5.283000000    -0.652000000
C    -1.977000000     0.204000000     0.857000000
H    -2.751000000     0.312000000     1.613000000
C    -0.673000000     0.291000000     1.192000000
H    -0.420000000     0.530000000     2.222000000
C     0.309000000     0.236000000     0.219000000
H     1.363000000     0.363000000     0.586000000
C     0.057000000    -0.133000000    -1.065000000
H     0.981000000    -0.152000000    -1.636000000
C    -1.307000000    -0.285000000    -1.448000000
H    -1.672000000    -0.522000000    -2.444000000
C    -2.270000000    -0.102000000    -0.495000000
C    -3.690000000    -0.520000000    -0.794000000
O    -4.084000000    -0.770000000    -1.942000000
O    -4.493000000    -0.347000000     0.026000000
O    -7.653000000    -0.036000000    -5.353000000
H    -6.874000000     0.089000000    -4.811000000
H    -7.432000000    -0.771000000    -5.924000000
O    -8.453000000     1.562000000    -0.873000000
H    -7.574000000     1.701000000    -0.522000000
H    -9.038000000     1.914000000    -0.202000000
O    -5.311000000     0.367000000    -3.901000000
H    -4.726000000     0.668000000    -4.596000000
H    -4.746000000    -0.135000000    -3.313000000
O    -7.082000000    -5.945000000    -0.676000000
H    -7.202000000    -5.826000000     0.267000000
H    -6.701000000    -6.819000000    -0.760000000
O    -6.692000000    -1.752000000    -1.233000000
H    -5.887000000    -1.338000000    -0.921000000
H    -6.392000000    -2.502000000    -1.747000000
O    -7.371000000    -1.069000000     2.536000000
H    -6.545000000    -1.419000000     2.204000000
H    -8.014000000    -1.289000000     1.862000000
O    -4.802000000    -1.779000000     2.341000000
H    -4.595000000    -1.428000000     1.475000000
H    -3.991000000    -1.679000000     2.840000000
O    -3.931000000    -3.184000000    -2.605000000
H    -3.884000000    -2.235000000    -2.484000000
H    -4.297000000    -3.512000000    -1.783000000
O   -10.019000000    -2.897000000    -2.789000000
H   -10.576000000    -3.528000000    -2.332000000
H    -9.317000000    -2.704000000    -2.168000000
O    -8.566000000     1.673000000     2.476000000
H    -7.889000000     1.037000000     2.707000000
H    -9.334000000     1.141000000     2.269000000
O    -5.091000000    -4.041000000    -0.455000000
H    -4.933000000    -4.158000000     0.482000000
H    -5.989000000    -4.344000000    -0.585000000
O    -5.183000000    -4.829000000    -4.293000000
H    -4.742000000    -4.219000000    -3.702000000
H    -6.092000000    -4.839000000    -3.992000000
O    -7.498000000    -4.754000000    -3.124000000
H    -7.274000000    -5.098000000    -2.259000000
H    -8.455000000    -4.767000000    -3.146000000
O    -8.849000000    -1.000000000    -0.011000000
H    -9.062000000    -0.134000000    -0.358000000
H    -8.053000000    -1.256000000    -0.476000000
O    -7.034000000     4.249000000    -4.729000000
H    -6.596000000     3.875000000    -3.964000000
H    -7.267000000     3.491000000    -5.265000000
O    -6.005000000     1.710000000     0.169000000
H    -5.519000000     0.899000000     0.023000000
H    -5.505000000     2.171000000     0.843000000
O    -6.103000000    -1.752000000     5.081000000
H    -5.464000000    -2.403000000     4.790000000
H    -6.550000000    -1.481000000     4.279000000
O    -6.325000000    -5.142000000     1.802000000
H    -7.017000000    -4.660000000     2.255000000
H    -6.286000000    -5.985000000     2.253000000
O    -6.091000000     2.749000000    -2.638000000
H    -6.133000000     1.838000000    -2.930000000
H    -5.955000000     2.692000000    -1.693000000
