215
-1446.57377
C    -2.248000000     3.936000000     2.969000000
H    -1.624000000     4.612000000     2.391000000
C    -1.593000000     2.993000000     3.718000000
C    -2.396000000     2.144000000     4.556000000
H    -1.980000000     1.445000000     5.277000000
C    -0.077000000     2.719000000     3.487000000
O     0.643000000     3.886000000     3.037000000
H     0.062000000     2.084000000     2.601000000
O     0.647000000     2.234000000     4.723000000
C     1.475000000     1.110000000     4.519000000
C     0.936000000    -0.151000000     4.620000000
H    -0.123000000    -0.214000000     4.860000000
C     1.565000000    -1.210000000     4.126000000
O     0.836000000    -2.442000000     4.113000000
C     2.891000000    -1.066000000     3.597000000
C     3.695000000    -2.256000000     3.292000000
H     4.763000000    -2.095000000     3.447000000
C     3.456000000    -2.641000000     1.843000000
C     4.317000000    -2.187000000     0.882000000
H     5.145000000    -1.578000000     1.236000000
H     3.346000000    -3.090000000     3.906000000
C     3.487000000     0.205000000     3.516000000
H     4.525000000     0.341000000     3.226000000
C     2.755000000     1.331000000     3.921000000
C     3.320000000     2.777000000     3.724000000
H     4.405000000     2.787000000     3.845000000
H     2.857000000     3.494000000     4.405000000
C     2.881000000     3.225000000     2.310000000
C     3.822000000     3.182000000     1.261000000
H     4.767000000     2.687000000     1.471000000
C     1.627000000     3.785000000     2.068000000
C     1.248000000     4.171000000     0.803000000
H     0.250000000     4.534000000     0.575000000
C     2.123000000     3.991000000    -0.254000000
O     1.613000000     4.215000000    -1.512000000
C     1.308000000     3.071000000    -2.324000000
C     0.008000000     3.295000000    -3.073000000
C    -0.209000000     2.818000000    -4.372000000
H     0.530000000     2.217000000    -4.896000000
C    -1.016000000     4.032000000    -2.476000000
H    -0.947000000     4.421000000    -1.464000000
O     2.495000000     2.929000000    -3.245000000
H     1.213000000     2.206000000    -1.651000000
C     3.443000000     3.602000000    -0.034000000
C     4.403000000     3.236000000    -1.209000000
H     5.434000000     3.147000000    -0.862000000
H     4.406000000     4.013000000    -1.976000000
C     3.972000000     1.880000000    -1.796000000
C     4.546000000     0.696000000    -1.351000000
H     5.143000000     0.727000000    -0.443000000
C     3.299000000     1.860000000    -2.968000000
C     3.202000000     0.706000000    -3.717000000
H     2.501000000     0.730000000    -4.547000000
C     3.596000000    -0.439000000    -3.176000000
O     3.120000000    -1.623000000    -3.713000000
C     2.074000000    -2.282000000    -2.907000000
C     0.858000000    -2.740000000    -3.784000000
C     0.582000000    -2.183000000    -5.073000000
H     1.261000000    -1.486000000    -5.558000000
C     0.099000000    -3.850000000    -3.355000000
H     0.274000000    -4.339000000    -2.400000000
O     2.538000000    -3.411000000    -2.144000000
H     1.598000000    -1.590000000    -2.197000000
C     4.375000000    -0.465000000    -1.991000000
C     5.012000000    -1.754000000    -1.494000000
H     5.987000000    -1.563000000    -1.041000000
H     5.128000000    -2.413000000    -2.357000000
C     4.063000000    -2.489000000    -0.488000000
C     3.036000000    -3.238000000    -0.841000000
C     2.146000000    -3.737000000     0.126000000
H     1.254000000    -4.253000000    -0.221000000
C     2.328000000    -3.458000000     1.491000000
O     1.458000000    -3.969000000     2.368000000
C     0.485000000    -2.993000000     2.839000000
H     0.358000000    -2.136000000     2.160000000
C    -0.846000000    -3.706000000     2.955000000
C    -1.757000000    -3.310000000     3.957000000
H    -1.386000000    -2.724000000     4.794000000
C    -1.321000000    -4.478000000     1.899000000
H    -0.591000000    -4.687000000     1.122000000
C    -2.633000000    -4.955000000     1.881000000
O    -2.976000000    -5.851000000     0.885000000
C    -3.497000000    -4.561000000     2.887000000
H    -4.444000000    -5.069000000     3.050000000
C    -3.041000000    -3.814000000     3.965000000
O    -3.941000000    -3.525000000     4.994000000
C    -3.917000000    -2.309000000     5.715000000
C    -4.482000000    -1.140000000     5.155000000
H    -4.848000000    -1.130000000     4.132000000
C    -3.431000000    -2.292000000     7.017000000
H    -2.963000000    -3.126000000     7.535000000
C    -3.482000000    -1.124000000     7.746000000
H    -2.969000000    -1.033000000     8.700000000
C    -3.822000000     0.058000000     7.114000000
H    -3.704000000     1.014000000     7.618000000
C    -4.247000000     0.049000000     5.803000000
O    -4.624000000     1.235000000     5.148000000
C    -3.824000000     2.223000000     4.570000000
C    -4.413000000     3.164000000     3.680000000
H    -5.472000000     3.172000000     3.435000000
C    -3.630000000     4.029000000     2.927000000
O    -4.312000000     4.752000000     2.023000000
C    -3.684000000     5.436000000     1.049000000
C    -3.798000000     4.892000000    -0.223000000
H    -4.235000000     3.902000000    -0.323000000
C    -3.095000000     6.635000000     1.290000000
H    -3.037000000     7.025000000     2.302000000
C    -2.652000000     7.310000000     0.172000000
H    -2.196000000     8.265000000     0.417000000
C    -2.652000000     6.808000000    -1.104000000
H    -2.220000000     7.375000000    -1.925000000
C    -3.202000000     5.578000000    -1.326000000
O    -3.181000000     5.054000000    -2.571000000
C    -2.210000000     4.254000000    -3.130000000
C    -2.472000000     3.671000000    -4.319000000
H    -3.503000000     3.738000000    -4.657000000
C    -1.475000000     2.941000000    -4.980000000
O    -1.867000000     2.408000000    -6.202000000
C    -1.149000000     1.527000000    -6.951000000
C    -1.348000000     0.205000000    -6.687000000
H    -2.155000000    -0.080000000    -6.018000000
C    -0.141000000     1.967000000    -7.724000000
H     0.014000000     3.022000000    -7.936000000
C     0.692000000     0.985000000    -8.278000000
H     1.501000000     1.255000000    -8.951000000
C     0.460000000    -0.391000000    -8.125000000
H     1.093000000    -1.096000000    -8.658000000
C    -0.547000000    -0.727000000    -7.237000000
O    -0.807000000    -2.078000000    -6.956000000
C    -0.438000000    -2.676000000    -5.795000000
C    -1.280000000    -3.694000000    -5.315000000
H    -2.057000000    -4.058000000    -5.983000000
C    -0.918000000    -4.289000000    -4.159000000
O    -1.717000000    -5.312000000    -3.717000000
C    -1.611000000    -6.000000000    -2.554000000
C    -0.923000000    -7.185000000    -2.456000000
H    -0.426000000    -7.595000000    -3.332000000
C    -0.793000000    -7.833000000    -1.229000000
H    -0.201000000    -8.745000000    -1.214000000
C    -1.467000000    -7.397000000    -0.106000000
H    -1.155000000    -7.769000000     0.866000000
C    -2.220000000    -6.214000000    -0.211000000
C    -2.303000000    -5.512000000    -1.429000000
H    -2.794000000    -4.543000000    -1.447000000
C    -1.812000000    -0.166000000     1.273000000
H    -2.194000000    -0.072000000     2.286000000
C    -0.354000000    -0.089000000     1.004000000
H     0.369000000    -0.039000000     1.814000000
C     0.098000000    -0.012000000    -0.335000000
H     1.168000000     0.249000000    -0.438000000
C    -0.792000000    -0.089000000    -1.425000000
H    -0.410000000    -0.125000000    -2.442000000
C    -2.174000000    -0.231000000    -1.117000000
H    -2.850000000    -0.209000000    -1.968000000
C    -2.703000000    -0.311000000     0.158000000
C    -4.197000000    -0.518000000     0.273000000
O    -4.753000000    -0.997000000    -0.712000000
O    -4.881000000    -0.244000000     1.268000000
O    -6.164000000     0.527000000    -2.394000000
H    -6.350000000     0.070000000    -3.214000000
H    -5.730000000    -0.128000000    -1.848000000
O    -8.263000000     1.606000000     2.663000000
H    -7.764000000     0.818000000     2.448000000
H    -7.845000000     1.947000000     3.453000000
O    -6.204000000    -0.690000000    -4.830000000
H    -5.443000000    -1.231000000    -4.621000000
H    -5.935000000    -0.182000000    -5.596000000
O    -7.039000000    -0.771000000     2.342000000
H    -6.197000000    -0.535000000     1.952000000
H    -6.812000000    -1.357000000     3.065000000
O    -3.983000000    -2.097000000    -3.434000000
H    -4.024000000    -1.902000000    -2.498000000
H    -3.677000000    -3.003000000    -3.476000000
O    -5.672000000    -4.328000000    -1.706000000
H    -5.911000000    -5.173000000    -1.323000000
H    -5.991000000    -3.681000000    -1.077000000
O    -9.909000000    -1.708000000     2.170000000
H   -10.228000000    -1.627000000     3.069000000
H    -9.037000000    -1.314000000     2.189000000
O    -7.133000000    -5.339000000     0.735000000
H    -6.941000000    -4.402000000     0.772000000
H    -7.878000000    -5.455000000     1.325000000
O    -6.497000000    -3.608000000    -4.460000000
H    -6.203000000    -3.761000000    -3.562000000
H    -6.934000000    -2.757000000    -4.427000000
O    -9.462000000    -0.617000000    -0.976000000
H    -9.751000000    -0.789000000    -0.080000000
H    -8.901000000    -1.362000000    -1.194000000
O    -9.705000000    -4.274000000     1.455000000
H    -9.712000000    -3.516000000     2.040000000
H    -9.549000000    -3.904000000     0.586000000
O    -6.744000000    -2.425000000     0.189000000
H    -7.120000000    -1.793000000     0.802000000
H    -5.931000000    -2.016000000    -0.107000000
O    -8.351000000     0.226000000     5.093000000
H    -8.627000000     0.555000000     4.238000000
H    -7.818000000    -0.544000000     4.892000000
O    -7.055000000     4.798000000    -1.897000000
H    -7.069000000     5.677000000    -1.517000000
H    -7.801000000     4.352000000    -1.497000000
O    -5.644000000     2.215000000     0.914000000
H    -4.726000000     2.418000000     1.093000000
H    -5.680000000     1.258000000     0.905000000
O    -8.503000000     2.544000000    -0.509000000
H    -7.703000000     2.775000000    -0.037000000
H    -8.568000000     1.593000000    -0.419000000
O    -7.169000000    -2.309000000     4.687000000
H    -7.120000000    -2.518000000     5.620000000
H    -7.380000000    -3.143000000     4.266000000
O    -7.812000000     4.371000000     1.840000000
H    -7.048000000     3.841000000     1.611000000
H    -8.509000000     3.733000000     1.993000000
O    -6.206000000     2.785000000    -3.837000000
H    -6.431000000     3.528000000    -3.277000000
H    -5.757000000     2.173000000    -3.254000000
