215
-1445.93563
C    -1.818000000     4.521000000     3.301000000
H    -1.489000000     5.300000000     2.618000000
C    -1.076000000     3.394000000     3.642000000
C    -1.644000000     2.335000000     4.299000000
H    -1.013000000     1.462000000     4.450000000
C     0.318000000     3.109000000     3.007000000
O     0.839000000     4.339000000     2.383000000
H     0.292000000     2.337000000     2.223000000
O     1.212000000     2.655000000     4.095000000
C     2.171000000     1.716000000     3.810000000
C     1.941000000     0.357000000     4.167000000
H     1.150000000     0.143000000     4.882000000
C     2.713000000    -0.652000000     3.607000000
O     2.267000000    -1.995000000     3.903000000
C     3.840000000    -0.303000000     2.814000000
C     4.710000000    -1.380000000     2.178000000
H     5.707000000    -1.003000000     1.939000000
C     4.157000000    -1.999000000     0.913000000
C     4.667000000    -1.537000000    -0.285000000
H     5.299000000    -0.658000000    -0.385000000
H     4.805000000    -2.205000000     2.887000000
C     4.150000000     1.022000000     2.638000000
H     4.978000000     1.228000000     1.965000000
C     3.330000000     2.074000000     3.039000000
C     3.602000000     3.433000000     2.500000000
H     4.657000000     3.506000000     2.226000000
H     3.362000000     4.002000000     3.400000000
C     2.876000000     3.850000000     1.229000000
C     3.493000000     3.717000000    -0.016000000
H     4.491000000     3.298000000    -0.105000000
C     1.562000000     4.353000000     1.232000000
C     0.924000000     4.743000000     0.037000000
H    -0.138000000     4.927000000     0.179000000
C     1.498000000     4.326000000    -1.124000000
O     0.710000000     4.376000000    -2.257000000
C     0.415000000     3.047000000    -2.857000000
C    -1.084000000     2.938000000    -3.049000000
C    -1.702000000     2.453000000    -4.208000000
H    -1.040000000     2.315000000    -5.059000000
C    -1.910000000     3.282000000    -1.975000000
H    -1.570000000     3.649000000    -1.010000000
O     1.162000000     2.743000000    -4.018000000
H     0.629000000     2.346000000    -2.036000000
C     2.815000000     3.839000000    -1.225000000
C     3.471000000     3.484000000    -2.525000000
H     4.555000000     3.552000000    -2.408000000
H     3.022000000     4.182000000    -3.235000000
C     3.321000000     2.075000000    -3.057000000
C     4.240000000     1.044000000    -2.813000000
H     5.167000000     1.101000000    -2.249000000
C     2.178000000     1.825000000    -3.873000000
C     1.958000000     0.521000000    -4.312000000
H     1.041000000     0.279000000    -4.842000000
C     2.746000000    -0.569000000    -3.994000000
O     2.341000000    -1.861000000    -4.358000000
C     1.742000000    -2.577000000    -3.228000000
C     0.456000000    -3.254000000    -3.661000000
C    -0.452000000    -2.744000000    -4.652000000
H    -0.138000000    -1.866000000    -5.211000000
C    -0.076000000    -4.199000000    -2.787000000
H     0.604000000    -4.543000000    -2.011000000
O     2.704000000    -3.440000000    -2.638000000
H     1.507000000    -1.775000000    -2.512000000
C     3.893000000    -0.263000000    -3.223000000
C     4.721000000    -1.435000000    -2.761000000
H     5.783000000    -1.236000000    -2.601000000
H     4.746000000    -2.319000000    -3.402000000
C     4.171000000    -1.998000000    -1.477000000
C     3.142000000    -2.946000000    -1.425000000
C     2.667000000    -3.493000000    -0.246000000
H     1.857000000    -4.215000000    -0.304000000
C     3.197000000    -3.029000000     0.943000000
O     2.525000000    -3.417000000     2.086000000
C     1.544000000    -2.635000000     2.777000000
H     1.167000000    -1.875000000     2.077000000
C     0.355000000    -3.476000000     3.323000000
C    -0.365000000    -3.054000000     4.448000000
H    -0.013000000    -2.242000000     5.079000000
C    -0.008000000    -4.619000000     2.615000000
H     0.586000000    -4.982000000     1.780000000
C    -1.186000000    -5.270000000     2.998000000
O    -1.617000000    -6.393000000     2.457000000
C    -2.026000000    -4.807000000     4.006000000
H    -3.000000000    -5.226000000     4.248000000
C    -1.606000000    -3.736000000     4.762000000
O    -2.426000000    -3.231000000     5.744000000
C    -2.279000000    -1.931000000     6.315000000
C    -2.900000000    -0.901000000     5.620000000
H    -3.529000000    -1.211000000     4.790000000
C    -1.360000000    -1.703000000     7.354000000
H    -0.713000000    -2.495000000     7.722000000
C    -1.160000000    -0.371000000     7.765000000
H    -0.468000000    -0.115000000     8.563000000
C    -1.833000000     0.633000000     7.081000000
H    -1.802000000     1.666000000     7.420000000
C    -2.693000000     0.378000000     6.067000000
O    -3.478000000     1.372000000     5.606000000
C    -2.954000000     2.383000000     4.765000000
C    -3.717000000     3.494000000     4.462000000
H    -4.793000000     3.541000000     4.606000000
C    -3.153000000     4.562000000     3.720000000
O    -4.018000000     5.472000000     3.184000000
C    -4.048000000     5.649000000     1.797000000
C    -4.058000000     4.536000000     1.043000000
H    -4.016000000     3.568000000     1.536000000
C    -3.968000000     6.904000000     1.221000000
H    -3.833000000     7.787000000     1.841000000
C    -3.805000000     7.073000000    -0.147000000
H    -3.554000000     8.053000000    -0.545000000
C    -3.956000000     5.912000000    -0.994000000
H    -4.020000000     5.968000000    -2.078000000
C    -3.963000000     4.647000000    -0.347000000
O    -4.118000000     3.492000000    -1.027000000
C    -3.308000000     3.209000000    -2.116000000
C    -3.892000000     2.623000000    -3.272000000
H    -4.950000000     2.400000000    -3.387000000
C    -3.076000000     2.271000000    -4.367000000
O    -3.625000000     1.743000000    -5.523000000
C    -3.005000000     0.733000000    -6.213000000
C    -2.957000000    -0.626000000    -5.714000000
H    -3.352000000    -0.807000000    -4.717000000
C    -2.484000000     0.998000000    -7.486000000
H    -2.557000000     2.012000000    -7.870000000
C    -1.786000000    -0.031000000    -8.179000000
H    -1.401000000     0.141000000    -9.181000000
C    -1.875000000    -1.357000000    -7.664000000
H    -1.412000000    -2.194000000    -8.180000000
C    -2.400000000    -1.580000000    -6.443000000
O    -2.368000000    -2.906000000    -6.078000000
C    -1.601000000    -3.407000000    -5.003000000
C    -1.977000000    -4.474000000    -4.194000000
H    -2.878000000    -5.056000000    -4.371000000
C    -1.293000000    -4.810000000    -3.051000000
O    -1.961000000    -5.688000000    -2.223000000
C    -1.354000000    -6.314000000    -1.194000000
C    -0.465000000    -7.440000000    -1.451000000
H    -0.185000000    -7.662000000    -2.477000000
C     0.074000000    -8.131000000    -0.341000000
H     0.798000000    -8.893000000    -0.619000000
C    -0.293000000    -7.790000000     0.989000000
H     0.228000000    -8.243000000     1.828000000
C    -1.267000000    -6.772000000     1.213000000
C    -1.687000000    -5.976000000     0.125000000
H    -2.269000000    -5.082000000     0.332000000
C    -1.459000000    -0.511000000     1.536000000
H    -1.670000000    -0.778000000     2.569000000
C    -0.244000000     0.021000000     1.101000000
H     0.506000000     0.159000000     1.875000000
C     0.065000000     0.349000000    -0.171000000
H     0.964000000     0.949000000    -0.449000000
C    -0.885000000     0.002000000    -1.177000000
H    -0.587000000     0.187000000    -2.206000000
C    -2.107000000    -0.513000000    -0.821000000
H    -2.766000000    -0.841000000    -1.622000000
C    -2.451000000    -0.718000000     0.557000000
C    -3.908000000    -1.057000000     0.913000000
O    -4.664000000    -1.277000000     0.010000000
O    -4.265000000    -0.907000000     2.023000000
O    -7.567000000     2.828000000     2.323000000
H    -7.220000000     2.864000000     1.431000000
H    -7.132000000     2.073000000     2.719000000
O    -7.786000000    -3.899000000     3.884000000
H    -8.408000000    -3.175000000     3.956000000
H    -6.928000000    -3.488000000     3.988000000
O    -5.507000000    -7.462000000     3.202000000
H    -5.542000000    -6.747000000     2.566000000
H    -5.806000000    -7.068000000     4.022000000
O    -5.760000000     0.741000000    -1.132000000
H    -5.722000000    -0.117000000    -0.709000000
H    -4.846000000     1.022000000    -1.185000000
O    -5.314000000    -3.004000000     3.431000000
H    -4.697000000    -3.638000000     3.067000000
H    -5.129000000    -2.192000000     2.959000000
O    -7.253000000    -1.787000000     0.998000000
H    -7.614000000    -1.298000000     0.258000000
H    -6.327000000    -1.545000000     1.015000000
O    -9.418000000     2.564000000    -1.301000000
H    -8.510000000     2.677000000    -1.021000000
H    -9.886000000     3.294000000    -0.898000000
O    -5.632000000    -2.907000000    -3.393000000
H    -6.378000000    -3.340000000    -2.978000000
H    -5.108000000    -3.624000000    -3.751000000
O    -5.191000000    -3.742000000     6.205000000
H    -5.498000000    -2.975000000     6.687000000
H    -4.434000000    -3.427000000     5.711000000
O    -5.840000000    -0.158000000    -3.787000000
H    -5.239000000    -0.879000000    -3.597000000
H    -6.055000000     0.207000000    -2.929000000
O    -7.725000000    -0.643000000     5.445000000
H    -7.495000000    -1.283000000     6.118000000
H    -8.117000000    -1.163000000     4.743000000
O    -8.948000000    -1.484000000     3.307000000
H    -8.367000000    -1.540000000     2.548000000
H    -9.694000000    -0.969000000     3.000000000
O    -4.643000000    -3.922000000    -0.096000000
H    -4.924000000    -4.074000000    -0.998000000
H    -4.667000000    -2.970000000     0.005000000
O    -4.078000000    -7.461000000    -1.423000000
H    -4.897000000    -7.142000000    -1.801000000
H    -3.477000000    -6.720000000    -1.491000000
O    -6.084000000     0.538000000     3.348000000
H    -6.324000000    -0.101000000     4.019000000
H    -5.385000000     0.113000000     2.851000000
O    -6.027000000    -5.463000000     1.536000000
H    -5.449000000    -4.989000000     0.938000000
H    -6.598000000    -4.788000000     1.903000000
O    -9.340000000    -0.811000000    -0.705000000
H    -9.645000000    -0.474000000    -1.547000000
H    -9.688000000    -0.195000000    -0.060000000
O    -6.698000000     2.933000000    -0.196000000
H    -6.027000000     3.599000000    -0.351000000
H    -6.329000000     2.131000000    -0.566000000
O    -7.542000000    -3.999000000    -2.093000000
H    -7.491000000    -3.685000000    -1.190000000
H    -7.839000000    -4.906000000    -2.014000000
