215
-1481.57900
C    -2.337000000     3.703000000     3.113000000
H    -2.110000000     4.360000000     2.277000000
C    -1.355000000     2.950000000     3.758000000
C    -1.651000000     2.078000000     4.756000000
H    -0.901000000     1.549000000     5.339000000
C     0.079000000     2.916000000     3.198000000
O     0.505000000     4.237000000     2.751000000
H     0.046000000     2.172000000     2.389000000
O     1.021000000     2.520000000     4.203000000
C     2.001000000     1.603000000     3.919000000
C     1.773000000     0.251000000     4.115000000
H     1.022000000    -0.143000000     4.795000000
C     2.638000000    -0.688000000     3.607000000
O     2.270000000    -1.981000000     3.826000000
C     3.759000000    -0.315000000     2.872000000
C     4.763000000    -1.338000000     2.368000000
H     5.723000000    -0.820000000     2.319000000
C     4.395000000    -1.911000000     1.016000000
C     4.902000000    -1.281000000    -0.181000000
H     5.527000000    -0.393000000    -0.130000000
H     4.963000000    -2.139000000     3.083000000
C     3.945000000     1.048000000     2.555000000
H     4.689000000     1.357000000     1.825000000
C     3.102000000     2.019000000     3.115000000
C     3.362000000     3.477000000     2.766000000
H     4.429000000     3.605000000     2.569000000
H     3.088000000     4.113000000     3.610000000
C     2.539000000     3.838000000     1.503000000
C     3.198000000     3.832000000     0.266000000
H     4.216000000     3.455000000     0.206000000
C     1.206000000     4.255000000     1.598000000
C     0.485000000     4.452000000     0.398000000
H    -0.574000000     4.683000000     0.481000000
C     1.120000000     4.363000000    -0.862000000
O     0.367000000     4.568000000    -1.943000000
C    -0.043000000     3.384000000    -2.592000000
C    -1.499000000     3.421000000    -2.992000000
C    -1.839000000     2.594000000    -4.065000000
H    -1.085000000     1.938000000    -4.492000000
C    -2.509000000     3.990000000    -2.258000000
H    -2.231000000     4.379000000    -1.282000000
O     0.857000000     3.049000000    -3.664000000
H     0.079000000     2.577000000    -1.855000000
C     2.507000000     4.143000000    -0.909000000
C     3.226000000     4.030000000    -2.233000000
H     4.278000000     4.285000000    -2.091000000
H     2.782000000     4.728000000    -2.946000000
C     3.045000000     2.618000000    -2.751000000
C     4.035000000     1.658000000    -2.571000000
H     4.927000000     1.962000000    -2.028000000
C     1.886000000     2.213000000    -3.471000000
C     1.792000000     0.893000000    -3.892000000
H     0.882000000     0.612000000    -4.416000000
C     2.734000000    -0.054000000    -3.623000000
O     2.418000000    -1.332000000    -4.009000000
C     1.790000000    -2.222000000    -3.072000000
C     0.579000000    -2.994000000    -3.690000000
C    -0.183000000    -2.497000000    -4.715000000
H     0.224000000    -1.634000000    -5.238000000
C     0.098000000    -4.075000000    -2.944000000
H     0.518000000    -4.295000000    -1.966000000
O     2.868000000    -3.040000000    -2.656000000
H     1.374000000    -1.680000000    -2.209000000
C     3.862000000     0.305000000    -2.922000000
C     4.916000000    -0.763000000    -2.577000000
H     5.875000000    -0.287000000    -2.364000000
H     5.109000000    -1.431000000    -3.419000000
C     4.440000000    -1.625000000    -1.462000000
C     3.558000000    -2.680000000    -1.519000000
C     3.091000000    -3.327000000    -0.368000000
H     2.463000000    -4.197000000    -0.543000000
C     3.562000000    -2.979000000     0.892000000
O     2.955000000    -3.443000000     2.051000000
C     1.823000000    -2.717000000     2.640000000
H     1.564000000    -1.977000000     1.868000000
C     0.651000000    -3.594000000     2.912000000
C    -0.328000000    -3.146000000     3.783000000
H    -0.313000000    -2.146000000     4.210000000
C     0.578000000    -4.861000000     2.371000000
H     1.298000000    -5.158000000     1.613000000
C    -0.498000000    -5.639000000     2.646000000
O    -0.710000000    -6.871000000     2.016000000
C    -1.533000000    -5.214000000     3.508000000
H    -2.420000000    -5.800000000     3.732000000
C    -1.371000000    -4.001000000     4.168000000
O    -2.294000000    -3.651000000     5.103000000
C    -2.122000000    -2.490000000     5.912000000
C    -2.767000000    -1.344000000     5.574000000
H    -3.472000000    -1.279000000     4.750000000
C    -1.156000000    -2.545000000     6.921000000
H    -0.785000000    -3.515000000     7.242000000
C    -0.891000000    -1.368000000     7.609000000
H    -0.137000000    -1.444000000     8.389000000
C    -1.683000000    -0.187000000     7.393000000
H    -1.468000000     0.660000000     8.040000000
C    -2.536000000    -0.167000000     6.320000000
O    -3.263000000     0.988000000     6.155000000
C    -2.937000000     1.897000000     5.168000000
C    -3.942000000     2.562000000     4.496000000
H    -4.955000000     2.429000000     4.868000000
C    -3.706000000     3.452000000     3.496000000
O    -4.833000000     4.189000000     2.935000000
C    -4.687000000     4.965000000     1.825000000
C    -4.914000000     4.344000000     0.581000000
H    -5.321000000     3.339000000     0.511000000
C    -4.160000000     6.242000000     1.889000000
H    -3.908000000     6.653000000     2.863000000
C    -3.935000000     6.911000000     0.725000000
H    -3.652000000     7.961000000     0.753000000
C    -4.211000000     6.352000000    -0.515000000
H    -3.949000000     6.839000000    -1.451000000
C    -4.631000000     5.078000000    -0.582000000
O    -4.882000000     4.545000000    -1.828000000
C    -3.878000000     3.895000000    -2.566000000
C    -4.204000000     3.215000000    -3.741000000
H    -5.252000000     3.165000000    -4.024000000
C    -3.216000000     2.563000000    -4.500000000
O    -3.615000000     1.748000000    -5.567000000
C    -2.768000000     0.853000000    -6.195000000
C    -2.890000000    -0.427000000    -5.714000000
H    -3.552000000    -0.550000000    -4.861000000
C    -1.960000000     1.255000000    -7.289000000
H    -1.818000000     2.322000000    -7.443000000
C    -1.301000000     0.276000000    -7.971000000
H    -0.731000000     0.416000000    -8.886000000
C    -1.493000000    -1.028000000    -7.535000000
H    -1.009000000    -1.823000000    -8.096000000
C    -2.163000000    -1.381000000    -6.387000000
O    -2.234000000    -2.657000000    -6.021000000
C    -1.435000000    -3.139000000    -5.048000000
C    -1.874000000    -4.303000000    -4.423000000
H    -2.831000000    -4.732000000    -4.710000000
C    -1.110000000    -4.710000000    -3.336000000
O    -1.721000000    -5.669000000    -2.552000000
C    -1.116000000    -6.537000000    -1.678000000
C    -0.170000000    -7.466000000    -2.084000000
H    -0.023000000    -7.620000000    -3.150000000
C     0.545000000    -8.204000000    -1.189000000
H     1.264000000    -8.907000000    -1.602000000
C     0.422000000    -7.918000000     0.163000000
H     0.990000000    -8.521000000     0.866000000
C    -0.538000000    -7.014000000     0.622000000
C    -1.322000000    -6.345000000    -0.318000000
H    -2.099000000    -5.650000000    -0.009000000
C    -1.968000000    -0.107000000     1.028000000
H    -2.389000000    -0.239000000     2.021000000
C    -0.560000000     0.098000000     0.863000000
H     0.092000000     0.177000000     1.729000000
C    -0.008000000     0.070000000    -0.409000000
H     1.099000000     0.202000000    -0.598000000
C    -0.867000000    -0.002000000    -1.511000000
H    -0.435000000     0.047000000    -2.507000000
C    -2.233000000    -0.124000000    -1.352000000
H    -2.893000000    -0.153000000    -2.215000000
C    -2.778000000    -0.268000000    -0.088000000
C    -4.256000000    -0.638000000     0.176000000
O    -5.086000000    -0.752000000    -0.714000000
O    -4.609000000    -1.133000000     1.249000000
O    -8.242000000     2.135000000     2.252000000
H    -9.040000000     2.613000000     2.029000000
H    -8.365000000     1.269000000     1.864000000
O    -4.437000000    -6.370000000     1.489000000
H    -4.495000000    -6.410000000     2.443000000
H    -4.123000000    -5.485000000     1.304000000
O    -6.847000000     1.135000000    -0.461000000
H    -6.153000000     0.503000000    -0.646000000
H    -7.482000000     0.648000000     0.065000000
O    -3.713000000    -3.718000000     1.363000000
H    -4.175000000    -2.879000000     1.350000000
H    -2.786000000    -3.481000000     1.342000000
O    -6.905000000    -2.680000000     1.091000000
H    -6.597000000    -3.531000000     0.781000000
H    -6.163000000    -2.091000000     0.952000000
O    -9.567000000    -3.803000000     0.132000000
H    -9.180000000    -4.678000000     0.153000000
H    -9.278000000    -3.432000000    -0.702000000
O    -7.645000000    -4.913000000    -3.251000000
H    -7.654000000    -4.484000000    -2.395000000
H    -7.124000000    -4.331000000    -3.805000000
O    -5.125000000    -2.786000000    -5.069000000
H    -5.443000000    -1.981000000    -5.478000000
H    -4.702000000    -3.265000000    -5.782000000
O    -5.001000000    -4.656000000     3.917000000
H    -5.873000000    -4.269000000     3.999000000
H    -4.668000000    -4.319000000     3.085000000
O    -5.767000000     0.393000000    -3.314000000
H    -5.528000000     0.178000000    -2.412000000
H    -6.397000000     1.109000000    -3.230000000
O    -7.275000000    -3.036000000     4.643000000
H    -7.130000000    -2.268000000     4.091000000
H    -7.440000000    -2.678000000     5.515000000
O    -8.484000000    -0.465000000     1.076000000
H    -9.289000000    -0.805000000     0.685000000
H    -7.929000000    -1.236000000     1.192000000
O    -4.851000000    -2.953000000    -2.348000000
H    -4.694000000    -2.803000000    -3.281000000
H    -4.824000000    -2.079000000    -1.958000000
O    -4.703000000    -5.838000000    -2.683000000
H    -3.967000000    -5.243000000    -2.826000000
H    -5.408000000    -5.275000000    -2.363000000
O    -5.901000000    -0.245000000     3.904000000
H    -5.183000000    -0.038000000     3.306000000
H    -6.680000000     0.107000000     3.473000000
O    -7.331000000    -5.792000000     0.240000000
H    -6.536000000    -6.149000000     0.637000000
H    -7.790000000    -6.557000000    -0.106000000
O    -9.491000000    -0.147000000    -2.637000000
H    -9.133000000     0.713000000    -2.857000000
H   -10.375000000     0.036000000    -2.319000000
O    -7.941000000    -2.514000000    -1.882000000
H    -7.049000000    -2.176000000    -1.965000000
H    -8.496000000    -1.735000000    -1.927000000
O    -8.464000000     3.300000000    -1.094000000
H    -9.104000000     3.413000000    -0.391000000
H    -7.814000000     2.698000000    -0.732000000
